REMARK  5 active torsions:
REMARK  status: ('A' for Active; 'I' for Inactive)
REMARK    1  A    between atoms: C2_4  and  N2_5 
REMARK    2  A    between atoms: N2_5  and  C3_6 
REMARK    3  A    between atoms: C3_6  and  C4_7 
REMARK    4  A    between atoms: C8_13  and  C9_14 
REMARK    5  A    between atoms: C9_14  and  C10_15 
ROOT
HETATM    1  O1  1RO   301       7.290  22.700  21.421  1.00 35.85    -0.267 OA
HETATM    2  C1  1RO   301       7.152  21.616  20.757  1.00 32.26     0.264 A 
HETATM    3  N1  1RO   301       6.113  21.545  19.950  1.00 32.83    -0.307 N 
HETATM    4  C2  1RO   301       6.096  20.362  19.323  1.00 32.77     0.127 A 
HETATM    5  S2  1RO   301       7.410  19.274  19.708  1.00 34.95    -0.055 SA
HETATM    6  C8  1RO   301       8.071  20.452  20.810  1.00 32.11     0.076 A 
HETATM    7  H1  1RO   301       5.415  22.291  19.820  1.00  0.00     0.170 HD
ENDROOT
BRANCH   6   8
HETATM    8  C9  1RO   301       9.298  20.313  21.642  1.00 29.50     0.036 C 
BRANCH   8   9
HETATM    9  C10 1RO   301       9.637  21.483  22.499  1.00 27.38    -0.034 A 
HETATM   10  C18 1RO   301       8.586  22.248  23.020  1.00 25.92     0.025 A 
HETATM   11  C17 1RO   301       8.820  23.366  23.808  1.00 25.41    -0.007 A 
HETATM   12  C13 1RO   301      10.224  23.734  24.108  1.00 25.06     0.066 A 
HETATM   13  C16 1RO   301       7.784  24.140  24.322  1.00 24.66     0.015 A 
HETATM   14  C12 1RO   301      11.250  22.947  23.586  1.00 25.32     0.033 A 
HETATM   15  N3  1RO   301      10.461  24.819  24.883  1.00 24.77    -0.260 NA
HETATM   16  C11 1RO   301      10.960  21.833  22.787  1.00 26.16     0.014 A 
HETATM   17  C14 1RO   301       9.447  25.557  25.372  1.00 24.58     0.117 A 
HETATM   18  C15 1RO   301       8.109  25.243  25.112  1.00 24.89     0.020 A 
ENDBRANCH   8   9
ENDBRANCH   6   8
BRANCH   4  19
HETATM   19  N2  1RO   301       5.056  20.175  18.493  1.00 31.61    -0.268 NA
HETATM   20  H2  1RO   301       4.686  19.274  18.827  1.00  0.00     0.130 HD
BRANCH  19  21
HETATM   21  C3  1RO   301       3.921  21.100  18.573  1.00 30.50     0.140 C 
BRANCH  21  22
HETATM   22  C4  1RO   301       3.692  21.716  19.948  1.00 30.23    -0.004 A 
HETATM   23  S1  1RO   301       3.209  20.660  21.230  1.00 29.85    -0.105 SA
HETATM   24  C7  1RO   301       3.129  21.888  22.452  1.00 29.60     0.050 A 
HETATM   25  C6  1RO   301       3.482  23.088  21.833  1.00 30.02     0.008 A 
HETATM   26  C5  1RO   301       3.790  23.008  20.466  1.00 29.99     0.016 A 
ENDBRANCH  21  22
ENDBRANCH  19  21
ENDBRANCH   4  19
TORSDOF 5
