REMARK  9 active torsions:
REMARK  status: ('A' for Active; 'I' for Inactive)
REMARK    1  A    between atoms: C4_5  and  O1_6 
REMARK    2  A    between atoms: C5_8  and  C6_9 
REMARK    3  A    between atoms: C7_11  and  N4_15 
REMARK    4  A    between atoms: N4_15  and  C10_16 
REMARK    5  A    between atoms: C13_19  and  S2_22 
REMARK    6  A    between atoms: S2_22  and  N5_25 
REMARK    7  A    between atoms: N5_25  and  C16_26 
REMARK    8  A    between atoms: C16_26  and  C17_27 
REMARK    9  A    between atoms: C17_27  and  O4_28 
ROOT
HETATM    1  N4  CDK   500      23.713  29.977  29.109  1.00 44.44    -0.061 NA
ENDROOT
BRANCH   1   2
HETATM    2  C10 CDK   500      23.106  28.833  28.834  1.00 44.40     0.076 A 
HETATM    3  C15 CDK   500      23.298  28.095  27.674  1.00 46.70     0.034 A 
HETATM    4  C14 CDK   500      22.545  26.933  27.492  1.00 56.68     0.027 A 
HETATM    5  C13 CDK   500      21.629  26.523  28.464  1.00 60.37     0.074 A 
HETATM    6  C12 CDK   500      21.438  27.268  29.619  1.00 49.78     0.027 A 
HETATM    7  C11 CDK   500      22.178  28.425  29.784  1.00 48.63     0.034 A 
BRANCH   5   8
HETATM    8  S2  CDK   500      20.635  25.097  28.284  1.00 67.23     0.241 S 
HETATM    9  O3  CDK   500      20.062  24.747  29.637  1.00 71.74    -0.206 OA
HETATM   10  O2  CDK   500      19.484  25.445  27.385  1.00 66.09    -0.206 OA
BRANCH   8  11
HETATM   11  N5  CDK   500      21.476  23.829  27.668  1.00 64.17    -0.214 NA
HETATM   12  H14 CDK   500      22.333  23.606  28.194  1.00  0.00     0.140 HD
BRANCH  11  13
HETATM   13  C16 CDK   500      20.620  22.629  27.621  1.00 62.70     0.130 C 
BRANCH  13  14
HETATM   14  C17 CDK   500      20.743  21.803  28.910  1.00 61.73     0.182 C 
BRANCH  14  15
HETATM   15  O4  CDK   500      19.601  21.943  29.794  1.00 59.13    -0.395 OA
HETATM   16  C18 CDK   500      19.251  20.670  30.331  1.00 56.14     0.201 C 
ENDBRANCH  14  15
ENDBRANCH  13  14
ENDBRANCH  11  13
ENDBRANCH   8  11
ENDBRANCH   5   8
ENDBRANCH   1   2
BRANCH   1  17
HETATM   17  C7  CDK   500      24.712  30.528  28.438  1.00 42.93     0.749 A 
HETATM   18  N3  CDK   500      24.924  31.821  28.718  1.00 36.33    -0.073 NA
HETATM   19  C8  CDK   500      25.906  32.494  28.146  1.00 43.95     0.139 A 
HETATM   20  C9  CDK   500      26.731  31.844  27.243  1.00 42.05     0.053 A 
HETATM   21  C6  CDK   500      26.515  30.495  26.985  1.00 45.88     0.096 A 
HETATM   22  N2  CDK   500      25.509  29.841  27.594  1.00 43.64    -0.060 NA
BRANCH  21  23
HETATM   23  C5  CDK   500      27.315  29.852  26.045  1.00 48.03     0.060 A 
HETATM   24  S1  CDK   500      26.757  28.660  24.974  1.00 49.33    -0.043 SA
HETATM   25  C4  CDK   500      28.263  28.515  24.193  1.00 56.27     0.187 A 
HETATM   26  N1  CDK   500      29.141  29.367  24.743  1.00 54.51    -0.329 N 
HETATM   27  C3  CDK   500      30.545  29.456  24.286  1.00 54.85     0.159 C 
HETATM   28  C2  CDK   500      28.654  30.122  25.741  1.00 50.45     0.029 A 
HETATM   29  C1  CDK   500      29.498  31.152  26.493  1.00 50.77     0.070 C 
BRANCH  25  30
HETATM   30  O1  CDK   500      28.509  27.722  23.286  1.00 60.18    -0.340 OA
HETATM   31  H7  CDK   500      29.502  27.843  23.041  1.00  0.00     0.220 HD
ENDBRANCH  25  30
ENDBRANCH  21  23
ENDBRANCH   1  17
TORSDOF 9
