REMARK  11 active torsions:
REMARK  status: ('A' for Active; 'I' for Inactive)
REMARK    1  A    between atoms: C1_1  and  N5_22 
REMARK    2  A    between atoms: C3_3  and  N3_7 
REMARK    3  A    between atoms: N3_7  and  C5_8 
REMARK    4  A    between atoms: C8_11  and  O1_14 
REMARK    5  A    between atoms: O1_14  and  C11_15 
REMARK    6  A    between atoms: C11_15  and  C12_16 
REMARK    7  A    between atoms: C12_16  and  O2_21 
REMARK    8  A    between atoms: C12_16  and  C13_17 
REMARK    9  A    between atoms: C13_17  and  N4_18 
REMARK   10  A    between atoms: N5_22  and  C16_23 
REMARK   11  A    between atoms: C20_27  and  C22_29 
ROOT
HETATM    1  C1  3FP   299      13.682  -8.583  13.331  1.00 39.69     0.112 A 
HETATM    2  C2  3FP   299      12.623  -9.104  12.564  1.00 37.39     0.097 A 
HETATM    3  C3  3FP   299      11.720 -10.003  13.165  1.00 36.50     0.154 A 
HETATM    4  N1  3FP   299      11.919 -10.324  14.439  1.00 35.21    -0.222 NA
HETATM    5  C4  3FP   299      12.925  -9.825  15.146  1.00 37.12     0.237 A 
HETATM    6  N2  3FP   299      13.798  -8.981  14.621  1.00 38.76    -0.230 NA
ENDROOT
BRANCH   3   7
HETATM    7  N3  3FP   299      10.615 -10.595  12.524  1.00 38.62    -0.230 NA
BRANCH   7   8
HETATM    8  C5  3FP   299      10.172 -10.430  11.189  1.00 41.34     0.059 A 
HETATM    9  C6  3FP   299       9.563 -11.503  10.511  1.00 43.02     0.034 A 
HETATM   10  C7  3FP   299       9.103 -11.375   9.197  1.00 44.79     0.039 A 
HETATM   11  C8  3FP   299       9.258 -10.148   8.542  1.00 46.14     0.069 A 
HETATM   12  C9  3FP   299       9.825  -9.079   9.240  1.00 44.37     0.039 A 
HETATM   13  C10 3FP   299      10.289  -9.201  10.538  1.00 41.59     0.034 A 
BRANCH  11  14
HETATM   14  O1  3FP   299       8.797  -9.871   7.275  1.00 50.04    -0.349 OA
BRANCH  14  15
HETATM   15  C11 3FP   299       9.286 -10.532   6.102  1.00 53.64     0.209 C 
BRANCH  15  16
HETATM   16  C12 3FP   299       8.531  -9.869   4.918  1.00 56.56     0.170 C 
BRANCH  16  17
HETATM   17  O2  3FP   299       7.540  -8.923   5.370  1.00 57.21    -0.392 OA
HETATM   18  H18 3FP   299       8.010  -8.286   6.029  1.00  0.00     0.210 HD
ENDBRANCH  16  17
BRANCH  16  19
HETATM   19  C13 3FP   299       7.863 -10.847   3.923  1.00 58.91     0.305 C 
BRANCH  19  20
HETATM   20  N4  3FP   299       7.089 -11.973   4.497  1.00 60.81     0.082 N 
HETATM   21  C15 3FP   299       6.669 -12.783   3.339  1.00 61.58     0.309 C 
HETATM   22  C14 3FP   299       5.817 -11.490   5.057  1.00 61.07     0.309 C 
ENDBRANCH  19  20
ENDBRANCH  16  19
ENDBRANCH  15  16
ENDBRANCH  14  15
ENDBRANCH  11  14
ENDBRANCH   7   8
ENDBRANCH   3   7
BRANCH   1  23
HETATM   23  N5  3FP   299      14.634  -7.694  12.811  1.00 41.73    -0.241 NA
HETATM   24  H19 3FP   299      15.402  -8.330  12.553  1.00  0.00     0.135 HD
BRANCH  23  25
HETATM   25  C16 3FP   299      14.487  -6.926  11.646  1.00 46.02     0.053 A 
HETATM   26  C21 3FP   299      15.447  -7.019  10.638  1.00 46.98     0.043 A 
HETATM   27  C20 3FP   299      15.340  -6.276   9.465  1.00 49.16     0.049 A 
HETATM   28  C19 3FP   299      14.258  -5.409   9.302  1.00 48.18     0.019 A 
HETATM   29  C18 3FP   299      13.299  -5.297  10.303  1.00 47.83     0.045 A 
HETATM   30  C17 3FP   299      13.409  -6.045  11.474  1.00 47.90     0.137 A 
HETATM   31  F4  3FP   299      12.470  -5.931  12.444  1.00 50.59    -0.204 F 
BRANCH  27  32
HETATM   32  C22 3FP   299      16.417  -6.415   8.387  1.00 51.76     0.417 C 
HETATM   33  F3  3FP   299      16.026  -7.345   7.399  1.00 53.72    -0.166 F 
HETATM   34  F1  3FP   299      16.770  -5.193   7.778  1.00 49.95    -0.166 F 
HETATM   35  F2  3FP   299      17.584  -6.869   9.003  1.00 53.96    -0.166 F 
ENDBRANCH  27  32
ENDBRANCH  23  25
ENDBRANCH   1  23
TORSDOF 11
