REMARK  7 active torsions:
REMARK  status: ('A' for Active; 'I' for Inactive)
REMARK    1  A    between atoms: N1_2  and  C2_3 
REMARK    2  A    between atoms: C5_7  and  C6_8 
REMARK    3  A    between atoms: C7_10  and  N4_11 
REMARK    4  A    between atoms: N4_11  and  C8_12 
REMARK    5  A    between atoms: C12_16  and  C13_17 
REMARK       I    between atoms: C13_17  and  N5_18 
REMARK    6  A    between atoms: C20_28  and  C21_29 
REMARK    7  A    between atoms: C21_29  and  N7_30 
ROOT
HETATM    1  C6  TJF  1296       7.375  23.020  24.163  1.00 57.93     0.116 A 
HETATM    2  N3  TJF  1296       6.766  23.758  25.102  1.00 57.04    -0.058 NA
HETATM    3  C7  TJF  1296       7.458  24.520  25.953  1.00 56.63     0.749 A 
HETATM    4  N6  TJF  1296       8.797  24.551  25.899  1.00 59.49    -0.072 NA
HETATM    5  C19 TJF  1296       9.476  23.843  24.985  1.00 56.06     0.160 A 
HETATM    6  C20 TJF  1296       8.773  23.052  24.077  1.00 56.92     0.083 A 
ENDROOT
BRANCH   3   7
HETATM    7  N4  TJF  1296       6.804  25.289  26.966  1.00 61.63    -0.061 NA
BRANCH   7   8
HETATM    8  C8  TJF  1296       5.483  25.839  26.913  1.00 65.48     0.077 A 
HETATM    9  C9  TJF  1296       5.021  26.538  28.017  1.00 65.24     0.032 A 
HETATM   10  C10 TJF  1296       3.748  27.085  28.025  1.00 65.35     0.003 A 
HETATM   11  C11 TJF  1296       2.920  26.937  26.924  1.00 65.87     0.017 A 
HETATM   12  C12 TJF  1296       3.368  26.234  25.813  1.00 72.14     0.034 A 
HETATM   13  C18 TJF  1296       4.644  25.696  25.809  1.00 68.42     0.049 A 
BRANCH  12  14
HETATM   14  C13 TJF  1296       2.492  26.083  24.623  1.00 82.63     0.254 C 
HETATM   15  O2  TJF  1296       2.581  26.900  23.723  1.00 85.54    -0.267 OA
HETATM   16  N5  TJF  1296       1.550  25.028  24.488  1.00 86.75    -0.344 N 
HETATM   17  C17 TJF  1296       0.816  25.014  23.342  1.00 89.76     0.152 C 
HETATM   18  C14 TJF  1296       1.445  24.105  25.478  1.00 87.94     0.152 C 
HETATM   19  C16 TJF  1296       0.709  23.627  22.793  1.00 90.58     0.187 C 
HETATM   20  O1  TJF  1296       1.565  22.707  23.498  1.00 89.63    -0.388 OA
HETATM   21  C15 TJF  1296       1.208  22.747  24.893  1.00 89.58     0.187 C 
ENDBRANCH  12  14
ENDBRANCH   7   8
ENDBRANCH   3   7
BRANCH   1  22
HETATM   22  C5  TJF  1296       6.542  22.211  23.223  1.00 60.74     0.063 A 
HETATM   23  C3  TJF  1296       6.548  20.788  23.038  1.00 60.56     0.053 A 
HETATM   24  C4  TJF  1296       7.400  19.801  23.771  1.00 59.46     0.072 C 
HETATM   25  N2  TJF  1296       5.563  20.411  21.993  1.00 61.62    -0.227 NA
HETATM   26  C2  TJF  1296       4.906  21.549  21.477  1.00 63.88     0.188 A 
HETATM   27  S1  TJF  1296       5.465  22.875  22.217  1.00 85.46    -0.046 SA
BRANCH  26  28
HETATM   28  N1  TJF  1296       3.901  21.523  20.457  1.00 66.84    -0.270 NA
HETATM   29  C1  TJF  1296       3.418  22.732  19.849  1.00 59.39     0.180 C 
ENDBRANCH  26  28
ENDBRANCH   1  22
BRANCH   6  30
HETATM   30  C21 TJF  1296       9.507  22.261  23.050  1.00 57.81     0.074 C 
BRANCH  30  31
HETATM   31  N7  TJF  1296      10.064  21.652  22.266  1.00 56.34    -0.020 N 
HETATM   32  H22 TJF  1296       9.392  21.443  21.514  1.00  0.00     0.291 HD
HETATM   33  H21 TJF  1296      10.397  20.795  22.731  1.00  0.00     0.291 HD
HETATM   34  H20 TJF  1296      10.845  22.234  21.931  1.00  0.00     0.291 HD
ENDBRANCH  30  31
ENDBRANCH   6  30
TORSDOF 7
