REMARK  3 active torsions:
REMARK  status: ('A' for Active; 'I' for Inactive)
REMARK    1  A    between atoms: C2_3  and  N4_14 
REMARK    2  A    between atoms: N4_14  and  C10_15 
REMARK    3  A    between atoms: C13_18  and  N5_21 
ROOT
HETATM    1  C1  CK8   500      25.840  38.933   7.693  1.00 29.83     0.139 A 
HETATM    2  N1  CK8   500      24.807  39.625   7.158  1.00 30.94    -0.073 NA
HETATM    3  C2  CK8   500      24.634  40.889   7.540  1.00 29.47     0.749 A 
HETATM    4  N2  CK8   500      25.407  41.531   8.414  1.00 31.43    -0.060 NA
HETATM    5  C3  CK8   500      26.458  40.912   8.987  1.00 31.01     0.096 A 
HETATM    6  C4  CK8   500      26.726  39.530   8.638  1.00 30.70     0.053 A 
HETATM    7  C5  CK8   500      27.230  41.703   9.921  1.00 33.64     0.060 A 
HETATM    8  C6  CK8   500      28.488  41.558  10.551  1.00 34.14     0.051 A 
HETATM    9  N3  CK8   500      28.838  42.588  11.393  1.00 36.15    -0.250 NA
HETATM   10  C7  CK8   500      27.880  43.516  11.423  1.00 36.09     0.072 A 
HETATM   11  S1  CK8   500      26.520  43.212  10.451  1.00 34.67    -0.071 SA
HETATM   12  C8  CK8   500      27.950  44.781  12.254  1.00 37.07     0.078 C 
HETATM   13  C9  CK8   500      29.486  40.414  10.409  1.00 33.40     0.072 C 
ENDROOT
BRANCH   3  14
HETATM   14  N4  CK8   500      23.522  41.571   6.943  1.00 30.24    -0.061 NA
BRANCH  14  15
HETATM   15  C10 CK8   500      22.931  42.898   7.044  1.00 31.63     0.076 A 
HETATM   16  C15 CK8   500      21.807  43.183   6.225  1.00 32.13     0.034 A 
HETATM   17  C14 CK8   500      21.190  44.454   6.271  1.00 31.68     0.031 A 
HETATM   18  C13 CK8   500      21.676  45.489   7.147  1.00 33.85     0.029 A 
HETATM   19  C12 CK8   500      22.812  45.181   7.976  1.00 34.50     0.031 A 
HETATM   20  C11 CK8   500      23.427  43.911   7.925  1.00 33.44     0.034 A 
BRANCH  18  21
HETATM   21  N5  CK8   500      21.026  46.845   7.198  1.00 35.82    -0.390 N 
HETATM   22  C17 CK8   500      21.513  47.936   8.096  1.00 35.97     0.149 C 
HETATM   23  C16 CK8   500      19.847  47.208   6.356  1.00 39.03     0.149 C 
ENDBRANCH  18  21
ENDBRANCH  14  15
ENDBRANCH   3  14
TORSDOF 3
