REMARK  4 active torsions:
REMARK  status: ('A' for Active; 'I' for Inactive)
REMARK    1  A    between atoms: C1_2  and  N5_18 
REMARK    2  A    between atoms: C4_6  and  O1_7 
REMARK    3  A    between atoms: O1_7  and  C5_8 
REMARK    4  A    between atoms: C5_8  and  C6_9 
ROOT
HETATM    1  N1  CMG   401       2.445  28.991   7.346  1.00 24.77    -0.036 NA
HETATM    2  C1  CMG   401       2.981  29.960   6.614  1.00 21.79     0.724 A 
HETATM    3  N2  CMG   401       2.390  31.170   6.609  1.00 20.95    -0.041 NA
HETATM    4  C2  CMG   401       1.301  31.419   7.326  1.00 16.31     0.203 A 
HETATM    5  C3  CMG   401       0.749  30.408   8.049  1.00 15.89     0.160 A 
HETATM    6  C4  CMG   401       1.327  29.141   8.057  1.00 21.41     0.216 A 
HETATM    7  N3  CMG   401      -0.292  31.001   8.618  1.00  2.23    -0.234 NA
HETATM    8  C12 CMG   401      -0.492  32.319   8.278  1.00 15.73     0.236 A 
HETATM    9  N4  CMG   401       0.588  32.528   7.490  1.00 14.81    -0.220 NA
ENDROOT
BRANCH   6  10
HETATM   10  O1  CMG   401       0.722  28.160   8.841  1.00 27.66    -0.332 OA
BRANCH  10  11
HETATM   11  C5  CMG   401       1.706  27.118   9.112  1.00 19.27     0.182 C 
BRANCH  11  12
HETATM   12  C6  CMG   401       0.979  26.303  10.257  1.00 13.34     0.010 C 
HETATM   13  C11 CMG   401       1.848  25.047  10.126  1.00  2.23     0.007 C 
HETATM   14  C10 CMG   401       1.364  23.999  11.171  1.00 15.61     0.000 C 
HETATM   15  C9  CMG   401       0.172  23.387  10.321  1.00 16.07     0.000 C 
HETATM   16  C8  CMG   401      -0.778  24.578  10.592  1.00  2.23     0.000 C 
HETATM   17  C7  CMG   401      -0.223  25.570   9.570  1.00  2.23     0.007 C 
ENDBRANCH  11  12
ENDBRANCH  10  11
ENDBRANCH   6  10
BRANCH   2  18
HETATM   18  N5  CMG   401       4.122  29.981   5.880  1.00 24.97    -0.231 N 
HETATM   19  H16 CMG   401       4.722  29.145   5.836  1.00  0.00     0.174 HD
HETATM   20  H15 CMG   401       4.388  30.833   5.367  1.00  0.00     0.174 HD
ENDBRANCH   2  18
TORSDOF 4
