REMARK  6 active torsions:
REMARK  status: ('A' for Active; 'I' for Inactive)
REMARK    1  A    between atoms: N1_1  and  S1_27 
REMARK    2  A    between atoms: C3_4  and  N2_7 
REMARK    3  A    between atoms: N2_7  and  C6_8 
REMARK    4  A    between atoms: C8_11  and  C10_15 
REMARK    5  A    between atoms: C10_15  and  O1_16 
REMARK    6  A    between atoms: C16_22  and  O2_23 
ROOT
HETATM    1  C6  LIA   299       1.769  29.532   6.900  1.00  9.16     0.203 A 
HETATM    2  N3  LIA   299       1.069  28.596   7.597  1.00  9.24    -0.230 NA
HETATM    3  C7  LIA   299       0.049  28.949   8.317  1.00  8.76     0.138 A 
HETATM    4  C8  LIA   299      -0.400  30.325   8.422  1.00  9.02     0.061 A 
HETATM    5  C9  LIA   299       0.364  31.287   7.659  1.00  8.51     0.139 A 
HETATM    6  N4  LIA   299       1.437  30.856   6.914  1.00  7.92    -0.200 NA
HETATM    7  N5  LIA   299       0.083  32.603   7.639  1.00  7.78    -0.383 N 
HETATM    8  H12 LIA   299       0.661  33.245   7.077  1.00  0.00     0.157 HD
HETATM    9  H13 LIA   299      -0.710  32.969   8.185  1.00  0.00     0.157 HD
ENDROOT
BRANCH   4  10
HETATM   10  C10 LIA   299      -1.543  30.655   9.260  1.00  8.90     0.097 C 
HETATM   11  C11 LIA   299      -2.197  29.647  10.064  1.00 10.02     0.073 A 
HETATM   12  C16 LIA   299      -1.510  29.004  11.189  1.00  9.84     0.084 A 
HETATM   13  C12 LIA   299      -3.548  29.259   9.750  1.00 10.79     0.170 A 
HETATM   14  C15 LIA   299      -2.214  27.992  11.950  1.00 10.60     0.041 A 
HETATM   15  C14 LIA   299      -3.548  27.625  11.616  1.00 11.33     0.048 A 
HETATM   16  C13 LIA   299      -4.212  28.257  10.524  1.00 11.95     0.156 A 
HETATM   17  F1  LIA   299      -5.450  27.907  10.229  1.00 13.53    -0.203 F 
HETATM   18  F2  LIA   299      -4.202  29.825   8.740  1.00 12.32    -0.202 F 
BRANCH  12  19
HETATM   19  O2  LIA   299      -0.188  29.401  11.490  1.00  9.06    -0.355 OA
HETATM   20  C17 LIA   299       0.555  28.398  12.227  1.00  7.97     0.210 C 
ENDBRANCH  12  19
BRANCH  10  21
HETATM   21  O1  LIA   299      -1.970  31.821   9.319  1.00  8.84    -0.359 OA
HETATM   22  H14 LIA   299      -2.760  31.819   9.980  1.00  0.00     0.218 HD
ENDBRANCH  10  21
ENDBRANCH   4  10
BRANCH   1  23
HETATM   23  N2  LIA   299       2.853  29.193   6.145  1.00 10.05    -0.256 NA
HETATM   24  H10 LIA   299       2.537  29.171   5.165  1.00  0.00     0.131 HD
BRANCH  23  25
HETATM   25  C3  LIA   299       3.474  27.912   6.508  1.00 10.58     0.065 C 
HETATM   26  C2  LIA   299       4.425  27.497   5.356  1.00  9.74     0.035 C 
HETATM   27  C1  LIA   299       5.228  26.235   5.737  1.00 10.69     0.109 C 
HETATM   28  N1  LIA   299       6.006  26.497   6.980  1.00 10.56    -0.211 NA
HETATM   29  C5  LIA   299       5.084  26.743   8.129  1.00 10.74     0.109 C 
HETATM   30  C4  LIA   299       4.263  28.022   7.859  1.00 10.01     0.035 C 
BRANCH  28  31
HETATM   31  S1  LIA   299       7.063  25.211   7.310  1.00 10.53     0.207 S 
HETATM   32  O4  LIA   299       7.911  25.002   6.168  1.00 10.25    -0.212 OA
HETATM   33  O3  LIA   299       7.871  25.586   8.449  1.00 10.84    -0.212 OA
HETATM   34  C18 LIA   299       6.179  23.662   7.710  1.00 11.57     0.180 C 
ENDBRANCH  28  31
ENDBRANCH  23  25
ENDBRANCH   1  23
TORSDOF 6
