REMARK  7 active torsions:
REMARK  status: ('A' for Active; 'I' for Inactive)
REMARK    1  A    between atoms: N1_2  and  C2_3 
REMARK    2  A    between atoms: C5_7  and  C6_8 
REMARK    3  A    between atoms: C7_10  and  N4_11 
REMARK    4  A    between atoms: N4_11  and  C8_12 
REMARK    5  A    between atoms: C12_16  and  N5_17 
REMARK       I    between atoms: N6_21  and  C16_22 
REMARK    6  A    between atoms: C22_30  and  C23_31 
REMARK    7  A    between atoms: C23_31  and  N8_32 
ROOT
HETATM    1  C6  T6Q  1299      -8.072  21.429 -22.608  1.00 29.16     0.116 A 
HETATM    2  N3  T6Q  1299      -7.506  22.271 -23.506  1.00 26.12    -0.058 NA
HETATM    3  C7  T6Q  1299      -8.269  22.972 -24.397  1.00 27.87     0.749 A 
HETATM    4  N7  T6Q  1299      -9.607  22.866 -24.400  1.00 31.35    -0.072 NA
HETATM    5  C21 T6Q  1299     -10.238  22.053 -23.497  1.00 29.16     0.160 A 
HETATM    6  C22 T6Q  1299      -9.472  21.334 -22.578  1.00 27.63     0.083 A 
ENDROOT
BRANCH   3   7
HETATM    7  N4  T6Q  1299      -7.626  23.851 -25.373  1.00 37.08    -0.061 NA
BRANCH   7   8
HETATM    8  C8  T6Q  1299      -6.371  24.537 -25.089  1.00 32.62     0.078 A 
HETATM    9  C20 T6Q  1299      -5.744  25.276 -26.119  1.00 34.51     0.061 A 
HETATM   10  C12 T6Q  1299      -4.537  25.940 -25.881  1.00 39.74     0.032 A 
HETATM   11  C11 T6Q  1299      -3.946  25.886 -24.618  1.00 35.60     0.029 A 
HETATM   12  C10 T6Q  1299      -4.575  25.140 -23.576  1.00 34.96     0.005 A 
HETATM   13  C9  T6Q  1299      -5.778  24.475 -23.818  1.00 32.38     0.032 A 
BRANCH  10  14
HETATM   14  N5  T6Q  1299      -3.893  26.709 -26.964  1.00 50.68    -0.379 N 
HETATM   15  C13 T6Q  1299      -2.613  26.089 -27.204  1.00 55.08     0.125 C 
HETATM   16  C14 T6Q  1299      -2.359  25.690 -28.612  1.00 60.42     0.040 C 
HETATM   17  C15 T6Q  1299      -3.436  24.851 -29.212  1.00 63.38     0.127 C 
HETATM   18  N6  T6Q  1299      -4.533  25.620 -29.694  1.00 63.91    -0.351 N 
HETATM   19  C16 T6Q  1299      -4.913  25.417 -31.084  1.00 72.27     0.215 C 
HETATM   20  C18 T6Q  1299      -5.308  26.586 -28.971  1.00 56.19     0.145 C 
HETATM   21  O1  T6Q  1299      -4.298  24.612 -31.780  1.00 76.38    -0.274 OA
HETATM   22  C17 T6Q  1299      -6.063  26.199 -31.678  1.00 70.05     0.117 C 
HETATM   23  C19 T6Q  1299      -4.441  27.432 -28.079  1.00 55.14     0.143 C 
ENDBRANCH  10  14
ENDBRANCH   7   8
ENDBRANCH   3   7
BRANCH   1  24
HETATM   24  C5  T6Q  1299      -7.257  20.751 -21.658  1.00 30.20     0.063 A 
HETATM   25  C3  T6Q  1299      -7.284  19.435 -21.127  1.00 28.37     0.053 A 
HETATM   26  N2  T6Q  1299      -6.358  19.169 -20.187  1.00 31.52    -0.227 NA
HETATM   27  C4  T6Q  1299      -8.244  18.337 -21.556  1.00 20.84     0.072 C 
HETATM   28  C2  T6Q  1299      -5.520  20.183 -19.855  1.00 29.98     0.188 A 
HETATM   29  S1  T6Q  1299      -5.966  21.540 -20.836  1.00 29.88    -0.046 SA
BRANCH  28  30
HETATM   30  N1  T6Q  1299      -4.479  20.142 -18.897  1.00 29.67    -0.270 NA
HETATM   31  C1  T6Q  1299      -3.826  21.386 -18.508  1.00 30.85     0.180 C 
ENDBRANCH  28  30
ENDBRANCH   1  24
BRANCH   6  32
HETATM   32  C23 T6Q  1299     -10.154  20.478 -21.602  1.00 27.98     0.074 C 
BRANCH  32  33
HETATM   33  N8  T6Q  1299     -10.691  19.812 -20.848  1.00 28.90    -0.020 N 
HETATM   34  H27 T6Q  1299     -10.904  18.926 -21.327  1.00  0.00     0.291 HD
HETATM   35  H26 T6Q  1299     -11.547  20.309 -20.563  1.00  0.00     0.291 HD
HETATM   36  H25 T6Q  1299     -10.047  19.674 -20.056  1.00  0.00     0.291 HD
ENDBRANCH  32  33
ENDBRANCH   6  32
TORSDOF 7
