REMARK  3 active torsions:
REMARK  status: ('A' for Active; 'I' for Inactive)
REMARK    1  A    between atoms: C4_4  and  C5_5 
REMARK    2  A    between atoms: C5_5  and  N1_6 
REMARK    3  A    between atoms: N1_6  and  C6_7 
ROOT
HETATM    1  C6  ZIP   400     103.411 100.192  80.082  1.00 35.65     0.137 A 
HETATM    2  C7  ZIP   400     104.720 100.237  80.681  1.00 32.52     0.146 A 
HETATM    3  N2  ZIP   400     105.329  99.463  81.692  1.00 29.66    -0.235 NA
HETATM    4  C8  ZIP   400     106.509 100.038  81.839  1.00 32.47     0.236 A 
HETATM    5  N3  ZIP   400     106.773 101.065  80.990  1.00 28.49    -0.220 NA
HETATM    6  C9  ZIP   400     105.620 101.216  80.309  1.00 30.09     0.184 A 
HETATM    7  N4  ZIP   400     105.229 102.155  79.294  1.00 27.54    -0.220 NA
HETATM    8  C10 ZIP   400     104.039 102.005  78.748  1.00 31.36     0.237 A 
HETATM    9  N5  ZIP   400     103.192 101.103  79.123  1.00 33.61    -0.228 NA
ENDROOT
BRANCH   1  10
HETATM   10  N1  ZIP   400     102.364  99.262  80.404  1.00 38.65    -0.275 NA
HETATM   11  H11 ZIP   400     102.878  98.374  80.498  1.00  0.00     0.129 HD
BRANCH  10  12
HETATM   12  C5  ZIP   400     101.236  98.924  79.510  1.00 44.32     0.094 C 
BRANCH  12  13
HETATM   13  C4  ZIP   400      99.784  99.010  79.960  1.00 48.51     0.024 C 
HETATM   14  C2  ZIP   400      99.135  98.442  81.011  1.00 49.63    -0.040 C 
HETATM   15  C1  ZIP   400      98.546  97.033  80.888  1.00 51.96     0.015 C 
HETATM   16  C3  ZIP   400      98.440  99.280  82.065  1.00 48.30     0.015 C 
ENDBRANCH  12  13
ENDBRANCH  10  12
ENDBRANCH   1  10
TORSDOF 3
