REMARK  7 active torsions:
REMARK  status: ('A' for Active; 'I' for Inactive)
REMARK    1  A    between atoms: C1_1  and  N5_18 
REMARK    2  A    between atoms: C2_3  and  O1_4 
REMARK    3  A    between atoms: O1_4  and  C3_5 
REMARK    4  A    between atoms: C3_5  and  C4_6 
REMARK    5  A    between atoms: N5_18  and  C13_19 
REMARK    6  A    between atoms: C16_22  and  S1_25 
REMARK    7  A    between atoms: S1_25  and  N6_26 
ROOT
HETATM    1  C1  4SP  1298       7.650  43.834  49.764  1.00 32.06     0.210 A 
HETATM    2  N1  4SP  1298       6.658  44.520  50.561  1.00 33.09    -0.191 NA
HETATM    3  C2  4SP  1298       7.080  45.467  51.369  1.00 32.63     0.200 A 
HETATM    4  C10 4SP  1298       8.465  45.767  51.540  1.00 28.44     0.158 A 
HETATM    5  N2  4SP  1298       9.232  46.729  52.256  1.00 25.19    -0.234 NA
HETATM    6  C11 4SP  1298      10.475  46.491  51.933  1.00 28.45     0.236 A 
HETATM    7  N3  4SP  1298      10.588  45.505  51.047  1.00 25.75    -0.220 NA
HETATM    8  C12 4SP  1298       9.362  45.111  50.814  1.00 28.39     0.187 A 
HETATM    9  N4  4SP  1298       8.879  44.099  49.970  1.00 31.53    -0.196 NA
ENDROOT
BRANCH   1  10
HETATM   10  N5  4SP  1298       7.286  42.856  48.978  1.00 33.46    -0.227 NA
HETATM   11  H15 4SP  1298       7.945  42.121  49.271  1.00  0.00     0.136 HD
BRANCH  10  12
HETATM   12  C13 4SP  1298       6.065  42.225  49.067  1.00 33.37     0.015 A 
HETATM   13  C18 4SP  1298       5.611  41.534  47.922  1.00 33.59     0.025 A 
HETATM   14  C17 4SP  1298       4.435  40.813  47.888  1.00 33.81     0.026 A 
HETATM   15  C16 4SP  1298       3.602  40.753  48.977  1.00 36.82     0.074 A 
HETATM   16  C15 4SP  1298       4.023  41.432  50.180  1.00 33.14     0.026 A 
HETATM   17  C14 4SP  1298       5.224  42.101  50.175  1.00 35.14     0.025 A 
BRANCH  15  18
HETATM   18  S1  4SP  1298       2.147  39.796  48.930  1.00 36.08     0.239 S 
HETATM   19  O3  4SP  1298       1.553  39.740  47.599  1.00 44.52    -0.206 OA
HETATM   20  O2  4SP  1298       2.455  38.512  49.542  1.00 38.77    -0.206 OA
BRANCH  18  21
HETATM   21  N6  4SP  1298       1.063  40.498  49.846  1.00 40.91    -0.225 NA
HETATM   22  H20 4SP  1298       0.213  39.918  49.805  1.00  0.00     0.136 HD
HETATM   23  H21 4SP  1298       1.454  40.538  50.798  1.00  0.00     0.136 HD
ENDBRANCH  18  21
ENDBRANCH  15  18
ENDBRANCH  10  12
ENDBRANCH   1  10
BRANCH   3  24
HETATM   24  O1  4SP  1298       6.254  46.229  52.073  1.00 31.80    -0.332 OA
BRANCH  24  25
HETATM   25  C3  4SP  1298       4.896  45.749  51.715  1.00 29.12     0.182 C 
BRANCH  25  26
HETATM   26  C4  4SP  1298       3.939  46.102  52.892  1.00 33.26     0.010 C 
HETATM   27  C9  4SP  1298       2.450  45.872  52.565  1.00 33.06     0.007 C 
HETATM   28  C8  4SP  1298       1.532  46.243  53.785  1.00 34.25     0.000 C 
HETATM   29  C7  4SP  1298       1.852  45.558  55.110  1.00 29.70     0.000 C 
HETATM   30  C6  4SP  1298       3.397  45.857  55.441  1.00 32.63     0.000 C 
HETATM   31  C5  4SP  1298       4.288  45.467  54.267  1.00 33.40     0.007 C 
ENDBRANCH  25  26
ENDBRANCH  24  25
ENDBRANCH   3  24
TORSDOF 7
