REMARK  9 active torsions:
REMARK  status: ('A' for Active; 'I' for Inactive)
REMARK    1  A    between atoms: N1_2  and  C3_4 
REMARK    2  A    between atoms: C3_4  and  C4_5 
REMARK    3  A    between atoms: C4_5  and  N2_6 
REMARK    4  A    between atoms: N2_6  and  S1_7 
REMARK    5  A    between atoms: S1_7  and  C5_10 
REMARK    6  A    between atoms: C8_13  and  C11_16 
REMARK    7  A    between atoms: C13_19  and  N7_31 
REMARK    8  A    between atoms: C14_20  and  C15_22 
REMARK       I    between atoms: C15_22  and  N5_24 
REMARK    9  A    between atoms: N5_24  and  C16_25 
ROOT
HETATM    1  C11 7YG  1302       2.332  30.193   7.533  1.00 28.30     0.085 A 
HETATM    2  C12 7YG  1302       2.455  31.401   6.841  1.00 27.55     0.151 A 
HETATM    3  N3  7YG  1302       1.635  32.437   7.049  1.00 29.91    -0.239 NA
HETATM    4  C13 7YG  1302       0.632  32.292   7.942  1.00 30.63     0.155 A 
HETATM    5  C14 7YG  1302       0.492  31.044   8.659  1.00 29.73     0.170 A 
HETATM    6  N4  7YG  1302       1.338  30.024   8.423  1.00 26.58    -0.237 NA
ENDROOT
BRANCH   1   7
HETATM    7  C8  7YG  1302       3.365  29.127   7.475  1.00 28.18    -0.006 A 
HETATM    8  C9  7YG  1302       4.267  29.040   6.408  1.00 29.63     0.015 A 
HETATM    9  C10 7YG  1302       5.235  28.052   6.356  1.00 28.50     0.026 A 
HETATM   10  C5  7YG  1302       5.292  27.105   7.369  1.00 30.62     0.074 A 
HETATM   11  C6  7YG  1302       4.417  27.168   8.439  1.00 28.38     0.026 A 
HETATM   12  C7  7YG  1302       3.457  28.162   8.478  1.00 29.34     0.015 A 
BRANCH  10  13
HETATM   13  S1  7YG  1302       6.532  25.856   7.341  1.00 36.07     0.241 S 
HETATM   14  O1  7YG  1302       7.171  25.876   6.061  1.00 36.20    -0.206 OA
HETATM   15  O2  7YG  1302       7.325  26.017   8.523  1.00 36.82    -0.206 OA
BRANCH  13  16
HETATM   16  N2  7YG  1302       5.789  24.429   7.476  1.00 43.78    -0.214 NA
HETATM   17  H11 7YG  1302       6.508  23.750   7.189  1.00  0.00     0.140 HD
BRANCH  16  18
HETATM   18  C4  7YG  1302       4.701  24.061   6.559  1.00 52.51     0.134 C 
BRANCH  18  19
HETATM   19  C3  7YG  1302       4.773  22.575   6.218  1.00 59.01     0.286 C 
BRANCH  19  20
HETATM   20  N1  7YG  1302       4.703  21.627   7.336  1.00 65.17     0.081 N 
HETATM   21  C2  7YG  1302       3.319  21.402   7.754  1.00 67.76     0.309 C 
HETATM   22  C1  7YG  1302       5.339  20.356   6.999  1.00 65.63     0.309 C 
ENDBRANCH  19  20
ENDBRANCH  18  19
ENDBRANCH  16  18
ENDBRANCH  13  16
ENDBRANCH  10  13
ENDBRANCH   1   7
BRANCH   5  23
HETATM   23  C15 7YG  1302      -0.578  30.806   9.685  1.00 30.94     0.278 C 
HETATM   24  O3  7YG  1302      -1.470  31.631   9.849  1.00 30.98    -0.265 OA
HETATM   25  N5  7YG  1302      -0.468  29.642  10.359  1.00 30.48    -0.320 N 
HETATM   26  H17 7YG  1302       0.356  29.066  10.134  1.00  0.00     0.169 HD
BRANCH  25  27
HETATM   27  C16 7YG  1302      -1.344  29.115  11.336  1.00 35.78     0.052 A 
HETATM   28  C17 7YG  1302      -0.848  28.123  12.165  1.00 37.81     0.032 A 
HETATM   29  C18 7YG  1302      -1.672  27.558  13.119  1.00 39.72     0.021 A 
HETATM   30  C19 7YG  1302      -2.982  27.979  13.191  1.00 41.33     0.116 A 
HETATM   31  N6  7YG  1302      -3.495  28.933  12.408  1.00 41.48    -0.271 NA
HETATM   32  C20 7YG  1302      -2.682  29.479  11.494  1.00 38.32     0.145 A 
ENDBRANCH  25  27
ENDBRANCH   5  23
BRANCH   4  33
HETATM   33  N7  7YG  1302      -0.168  33.335   8.173  1.00 30.56    -0.382 N 
HETATM   34  H22 7YG  1302      -0.941  33.252   8.849  1.00  0.00     0.157 HD
HETATM   35  H23 7YG  1302      -0.013  34.223   7.675  1.00  0.00     0.157 HD
ENDBRANCH   4  33
TORSDOF 9
