REMARK  7 active torsions:
REMARK  status: ('A' for Active; 'I' for Inactive)
REMARK    1  A    between atoms: N1_2  and  C2_3 
REMARK    2  A    between atoms: C5_7  and  C6_8 
REMARK    3  A    between atoms: C7_10  and  N4_11 
REMARK    4  A    between atoms: N4_11  and  C8_12 
REMARK    5  A    between atoms: C10_14  and  O1_15 
REMARK    6  A    between atoms: C15_21  and  C16_22 
REMARK    7  A    between atoms: C16_22  and  N6_23 
ROOT
HETATM    1  C6  T9N  1299       7.797  22.218  22.977  1.00 24.85     0.115 A 
HETATM    2  N3  T9N  1299       7.268  23.094  23.891  1.00 22.41    -0.058 NA
HETATM    3  C7  T9N  1299       7.931  23.957  24.716  1.00 21.41     0.749 A 
HETATM    4  N5  T9N  1299       9.241  23.886  24.564  1.00 22.94    -0.072 NA
HETATM    5  C14 T9N  1299       9.874  23.066  23.697  1.00 22.34     0.160 A 
HETATM    6  C15 T9N  1299       9.195  22.177  22.834  1.00 24.15     0.082 A 
ENDROOT
BRANCH   1   7
HETATM    7  C5  T9N  1299       6.881  21.361  22.147  1.00 37.21     0.052 C 
HETATM    8  S1  T9N  1299       5.203  21.765  21.790  1.00 60.05    -0.063 SA
HETATM    9  C2  T9N  1299       4.992  20.484  20.646  1.00 62.81     0.328 C 
HETATM   10  N2  T9N  1299       6.013  19.636  20.827  1.00 54.00    -0.247 NA
HETATM   11  H5  T9N  1299       6.542  19.694  19.945  1.00  0.00     0.131 HD
HETATM   12  C3  T9N  1299       6.931  19.939  21.834  1.00 40.87     0.004 C 
HETATM   13  C4  T9N  1299       7.958  18.966  22.325  1.00 35.32     0.063 C 
BRANCH   9  14
HETATM   14  N1  T9N  1299       4.201  20.584  19.446  1.00 62.14     0.119 N 
HETATM   15  C1  T9N  1299       4.389  21.871  18.838  1.00 57.53     0.311 C 
HETATM   16  H4  T9N  1299       4.497  19.853  18.784  1.00  0.00     0.319 HD
ENDBRANCH   9  14
ENDBRANCH   1   7
BRANCH   6  17
HETATM   17  C16 T9N  1299       9.880  21.292  21.853  1.00 20.06     0.074 C 
BRANCH  17  18
HETATM   18  N6  T9N  1299      10.384  20.616  21.091  1.00 24.13    -0.020 N 
HETATM   19  H17 T9N  1299      10.386  21.122  20.194  1.00  0.00     0.291 HD
HETATM   20  H16 T9N  1299       9.827  19.751  21.041  1.00  0.00     0.291 HD
HETATM   21  H15 T9N  1299      11.339  20.438  21.432  1.00  0.00     0.291 HD
ENDBRANCH  17  18
ENDBRANCH   6  17
BRANCH   3  22
HETATM   22  N4  T9N  1299       7.286  24.870  25.612  1.00 28.50    -0.061 NA
BRANCH  22  23
HETATM   23  C8  T9N  1299       6.026  25.500  25.301  1.00 29.29     0.078 A 
HETATM   24  C9  T9N  1299       5.338  25.221  24.164  1.00 27.93     0.068 A 
HETATM   25  C10 T9N  1299       4.014  25.916  23.897  1.00 31.34     0.067 A 
HETATM   26  C11 T9N  1299       3.523  26.816  24.795  1.00 33.90     0.036 A 
HETATM   27  C12 T9N  1299       4.272  27.118  26.033  1.00 34.09     0.005 A 
HETATM   28  C13 T9N  1299       5.470  26.491  26.281  1.00 36.34     0.032 A 
BRANCH  25  29
HETATM   29  O1  T9N  1299       3.297  25.661  22.748  1.00 32.31    -0.361 OA
HETATM   30  H10 T9N  1299       3.834  24.970  22.205  1.00  0.00     0.217 HD
ENDBRANCH  25  29
ENDBRANCH  22  23
ENDBRANCH   3  22
TORSDOF 7
