REMARK  3 active torsions:
REMARK  status: ('A' for Active; 'I' for Inactive)
REMARK    1  A    between atoms: O1_1  and  C1_2 
REMARK    2  A    between atoms: C3_4  and  N1_8 
REMARK    3  A    between atoms: N1_8  and  C7_9 
ROOT
HETATM    1  C7  CK5   500      15.397  46.000  13.554  1.00 31.72     0.749 A 
HETATM    2  N2  CK5   500      15.240  46.299  14.844  1.00 35.57    -0.073 NA
HETATM    3  C8  CK5   500      14.256  45.708  15.550  1.00 34.68     0.139 A 
HETATM    4  C9  CK5   500      13.394  44.770  14.935  1.00 35.27     0.053 A 
HETATM    5  C10 CK5   500      13.633  44.504  13.549  1.00 34.56     0.096 A 
HETATM    6  N3  CK5   500      14.644  45.144  12.907  1.00 32.62    -0.060 NA
HETATM    7  C11 CK5   500      12.866  43.565  12.786  1.00 36.14     0.060 A 
HETATM    8  C12 CK5   500      11.617  42.926  12.883  1.00 36.92     0.051 A 
HETATM    9  C13 CK5   500      10.543  43.047  13.961  1.00 37.29     0.072 C 
HETATM   10  N4  CK5   500      11.347  42.057  11.828  1.00 37.80    -0.250 NA
HETATM   11  C14 CK5   500      12.336  42.021  10.952  1.00 35.76     0.072 A 
HETATM   12  S1  CK5   500      13.619  43.001  11.328  1.00 35.81    -0.071 SA
HETATM   13  C15 CK5   500      12.382  41.197   9.701  1.00 36.56     0.078 C 
ENDROOT
BRANCH   1  14
HETATM   14  N1  CK5   500      16.486  46.686  12.947  1.00 29.73    -0.061 NA
BRANCH  14  15
HETATM   15  C3  CK5   500      17.167  46.420  11.675  1.00 31.79     0.078 A 
HETATM   16  C2  CK5   500      16.852  45.376  10.727  1.00 31.94     0.068 A 
HETATM   17  C1  CK5   500      17.600  45.230   9.526  1.00 32.41     0.067 A 
HETATM   18  C6  CK5   500      18.665  46.118   9.261  1.00 33.06     0.036 A 
HETATM   19  C5  CK5   500      18.992  47.149  10.178  1.00 33.45     0.005 A 
HETATM   20  C4  CK5   500      18.239  47.292  11.372  1.00 31.96     0.032 A 
BRANCH  17  21
HETATM   21  O1  CK5   500      17.324  44.261   8.606  1.00 32.06    -0.361 OA
HETATM   22  H1  CK5   500      16.523  43.723   8.966  1.00  0.00     0.217 HD
ENDBRANCH  17  21
ENDBRANCH  14  15
ENDBRANCH   1  14
TORSDOF 3
