REMARK  7 active torsions:
REMARK  status: ('A' for Active; 'I' for Inactive)
REMARK    1  A    between atoms: C4_5  and  N1_6 
REMARK    2  A    between atoms: N1_6  and  C5_7 
REMARK    3  A    between atoms: C6_9  and  N3_10 
REMARK    4  A    between atoms: C7_11  and  C8_12 
REMARK    5  A    between atoms: C8_12  and  C9_13 
REMARK    6  A    between atoms: C8_12  and  O3_22 
REMARK    7  A    between atoms: C13_17  and  N4_19 
ROOT
HETATM    1  C5  3O0   293      -5.848  61.380  58.474  1.00 45.64     0.196 A 
HETATM    2  N2  3O0   293      -6.429  60.602  57.539  1.00 47.44    -0.204 NA
HETATM    3  C6  3O0   293      -6.867  59.411  58.011  1.00 47.78     0.144 A 
HETATM    4  C7  3O0   293      -6.639  59.200  59.377  1.00 44.91     0.088 A 
HETATM    5  S1  3O0   293      -5.860  60.572  59.982  1.00 43.42    -0.044 SA
ENDROOT
BRANCH   4   6
HETATM    6  C8  3O0   293      -7.043  57.958  60.184  1.00 45.93     0.097 C 
BRANCH   6   7
HETATM    7  C9  3O0   293      -6.876  57.933  61.700  1.00 45.28     0.001 A 
HETATM    8  C10 3O0   293      -6.987  59.086  62.471  1.00 43.20     0.014 A 
HETATM    9  C11 3O0   293      -6.832  59.024  63.858  1.00 45.90     0.003 A 
HETATM   10  C12 3O0   293      -6.566  57.800  64.476  1.00 50.75     0.036 A 
HETATM   11  C13 3O0   293      -6.464  56.647  63.698  1.00 53.36     0.103 A 
HETATM   12  C14 3O0   293      -6.623  56.717  62.319  1.00 50.52     0.050 A 
BRANCH  11  13
HETATM   13  N4  3O0   293      -6.224  55.463  64.235  1.00 62.12    -0.116 N 
HETATM   14  O1  3O0   293      -5.938  55.325  65.630  1.00 69.74    -0.532 OA
HETATM   15  O2  3O0   293      -6.277  54.309  63.402  1.00 66.68    -0.532 OA
ENDBRANCH  11  13
ENDBRANCH   6   7
BRANCH   6  16
HETATM   16  O3  3O0   293      -7.521  56.981  59.618  1.00 48.93    -0.358 OA
HETATM   17  H9  3O0   293      -7.730  56.283  60.346  1.00  0.00     0.218 HD
ENDBRANCH   6  16
ENDBRANCH   4   6
BRANCH   3  18
HETATM   18  N3  3O0   293      -7.478  58.510  57.240  1.00 50.11    -0.383 N 
HETATM   19  H4  3O0   293      -7.633  58.708  56.241  1.00  0.00     0.157 HD
HETATM   20  H3  3O0   293      -7.794  57.617  57.644  1.00  0.00     0.157 HD
ENDBRANCH   3  18
BRANCH   1  21
HETATM   21  N1  3O0   293      -5.351  62.597  58.204  1.00 47.06    -0.223 NA
BRANCH  21  22
HETATM   22  C4  3O0   293      -4.983  63.561  59.064  1.00 46.46     0.059 A 
HETATM   23  C3  3O0   293      -4.294  64.647  58.518  1.00 51.00     0.033 A 
HETATM   24  C2  3O0   293      -3.862  65.704  59.317  1.00 52.18     0.026 A 
HETATM   25  C1  3O0   293      -4.128  65.685  60.683  1.00 50.25     0.034 A 
HETATM   26  C16 3O0   293      -4.818  64.603  61.252  1.00 46.45     0.026 A 
HETATM   27 CL1  3O0   293      -3.584  67.012  61.653  1.00 55.09    -0.084 Cl
HETATM   28  C15 3O0   293      -5.244  63.541  60.443  1.00 43.91     0.033 A 
ENDBRANCH  21  22
ENDBRANCH   1  21
TORSDOF 7
