REMARK  6 active torsions:
REMARK  status: ('A' for Active; 'I' for Inactive)
REMARK    1  A    between atoms: C3_3  and  C7_7 
REMARK    2  A    between atoms: C8_8  and  C18_22 
REMARK    3  A    between atoms: C13_13  and  N3_16 
REMARK       I    between atoms: N3_16  and  C14_17 
REMARK    4  A    between atoms: C14_17  and  C15_18 
REMARK    5  A    between atoms: C15_18  and  C16_19 
REMARK    6  A    between atoms: C21_25  and  O2_28 
ROOT
HETATM    1  C7  A27   299      39.385  -8.255  24.270  1.00110.26    -0.014 A 
HETATM    2  C8  A27   299      38.643  -8.333  23.063  1.00 18.77    -0.013 A 
HETATM    3  C9  A27   299      39.084  -9.183  22.043  1.00 40.52     0.047 A 
HETATM    4  C10 A27   299      40.234  -9.955  22.196  1.00 58.93     0.094 A 
HETATM    5  C11 A27   299      40.974  -9.877  23.369  1.00 60.28     0.043 A 
HETATM    6  C12 A27   299      40.543  -9.036  24.400  1.00 28.13     0.031 A 
HETATM    7  C13 A27   299      42.035 -10.748  23.130  1.00 48.55     0.165 A 
HETATM    8  N1  A27   299      41.872 -11.257  21.912  1.00 62.74    -0.130 NA
HETATM    9  N2  A27   299      40.856 -10.801  21.377  1.00 48.96    -0.148 NA
ENDROOT
BRANCH   2  10
HETATM   10  C18 A27   299      37.479  -7.612  22.805  1.00105.43    -0.025 A 
HETATM   11  C19 A27   299      37.327  -7.071  21.526  1.00 35.71     0.015 A 
HETATM   12  C20 A27   299      36.210  -6.309  21.213  1.00 47.67     0.037 A 
HETATM   13  C21 A27   299      35.215  -6.126  22.167  1.00 60.24     0.065 A 
HETATM   14  C22 A27   299      35.347  -6.684  23.439  1.00 39.77     0.037 A 
HETATM   15  C23 A27   299      36.461  -7.466  23.754  1.00 34.52     0.015 A 
BRANCH  13  16
HETATM   16  O2  A27   299      34.113  -5.406  21.838  1.00 50.58    -0.361 OA
HETATM   17  H20 A27   299      34.231  -5.105  20.860  1.00  0.00     0.217 HD
ENDBRANCH  13  16
ENDBRANCH   2  10
BRANCH   1  18
HETATM   18  C3  A27   299      39.074  -7.382  25.328  1.00 35.35    -0.025 A 
HETATM   19  C2  A27   299      38.767  -7.859  26.615  1.00 84.50     0.012 A 
HETATM   20  C1  A27   299      38.476  -6.967  27.665  1.00 19.47     0.001 A 
HETATM   21  C6  A27   299      38.516  -5.589  27.429  1.00 36.11     0.000 A 
HETATM   22  C5  A27   299      38.847  -5.104  26.155  1.00 16.68     0.001 A 
HETATM   23  C4  A27   299      39.128  -5.994  25.115  1.00 38.41     0.012 A 
ENDBRANCH   1  18
BRANCH   7  24
HETATM   24  N3  A27   299      43.107 -11.076  23.870  1.00 43.52    -0.310 N 
HETATM   25  H8  A27   299      43.709 -11.798  23.449  1.00  0.00     0.170 HD
HETATM   26  C14 A27   299      43.529 -10.628  25.059  1.00 34.48     0.223 C 
HETATM   27  O1  A27   299      42.962  -9.804  25.777  1.00 59.70    -0.273 OA
BRANCH  26  28
HETATM   28  C15 A27   299      44.849 -11.256  25.511  1.00 25.29     0.103 C 
BRANCH  28  29
HETATM   29  C16 A27   299      44.637 -12.700  25.965  1.00 78.83     0.005 C 
HETATM   30  C17 A27   299      45.812 -13.194  26.807  1.00 48.97     0.005 C 
ENDBRANCH  28  29
ENDBRANCH  26  28
ENDBRANCH   7  24
TORSDOF 6
