REMARK  3 active torsions:
REMARK  status: ('A' for Active; 'I' for Inactive)
REMARK    1  A    between atoms: N1_1  and  C1_2 
REMARK    2  A    between atoms: C4_6  and  C5_8 
REMARK    3  A    between atoms: C6_10  and  N5_14 
ROOT
HETATM    1  C1  CK7   500      14.766  -5.990  11.431  1.00 41.55     0.122 A 
HETATM    2  N2  CK7   500      15.496  -5.869  12.565  1.00 41.63    -0.242 NA
HETATM    3  C2  CK7   500      15.196  -6.804  13.535  1.00 40.96     0.007 A 
HETATM    4  C3  CK7   500      15.897  -6.811  14.862  1.00 39.47     0.063 C 
HETATM    5  C4  CK7   500      14.189  -7.770  12.913  1.00 40.43     0.054 A 
HETATM    6  S1  CK7   500      13.699  -7.276  11.407  1.00 42.08    -0.057 SA
HETATM    7  H3  CK7   500      15.271  -4.943  12.957  1.00  0.00     0.135 HD
ENDROOT
BRANCH   5   8
HETATM    8  C5  CK7   500      13.279  -8.808  13.466  1.00 39.96     0.096 A 
HETATM    9  C8  CK7   500      13.358  -9.211  14.790  1.00 39.25     0.053 A 
HETATM   10  C7  CK7   500      12.430 -10.138  15.176  1.00 39.13     0.139 A 
HETATM   11  N4  CK7   500      11.525 -10.635  14.279  1.00 38.88    -0.075 NA
HETATM   12  C6  CK7   500      11.505 -10.294  13.007  1.00 38.86     0.720 A 
HETATM   13  N3  CK7   500      12.373  -9.371  12.601  1.00 39.45    -0.062 NA
BRANCH  12  14
HETATM   14  N5  CK7   500      10.578 -10.888  12.281  1.00 38.00    -0.231 N 
HETATM   15  H10 CK7   500      10.472 -10.648  11.285  1.00  0.00     0.174 HD
HETATM   16  H9  CK7   500       9.960 -11.592  12.710  1.00  0.00     0.174 HD
ENDBRANCH  12  14
ENDBRANCH   5   8
BRANCH   1  17
HETATM   17  N1  CK7   500      14.702  -5.255  10.131  1.00 42.53    -0.384 N 
HETATM   18  H1  CK7   500      14.038  -5.554   9.403  1.00  0.00     0.157 HD
HETATM   19  H2  CK7   500      15.322  -4.450   9.964  1.00  0.00     0.157 HD
ENDBRANCH   1  17
TORSDOF 3
