REMARK  8 active torsions:
REMARK  status: ('A' for Active; 'I' for Inactive)
REMARK    1  A    between atoms: N1_2  and  C2_3 
REMARK    2  A    between atoms: C5_7  and  C6_8 
REMARK    3  A    between atoms: C7_10  and  N4_11 
REMARK    4  A    between atoms: N4_11  and  C8_12 
REMARK    5  A    between atoms: C10_14  and  S1_15 
REMARK    6  A    between atoms: S1_15  and  N5_17 
REMARK    7  A    between atoms: C15_24  and  C16_25 
REMARK    8  A    between atoms: C16_25  and  N7_26 
ROOT
HETATM    1  C6  T3E  1298       7.774  22.783  24.237  1.00 31.33     0.100 A 
HETATM    2  N3  T3E  1298       7.182  23.528  25.210  1.00 31.58    -0.216 NA
HETATM    3  C7  T3E  1298       7.851  24.543  25.845  1.00 32.96     0.206 A 
HETATM    4  N6  T3E  1298       9.147  24.801  25.515  1.00 32.26    -0.229 NA
HETATM    5  C14 T3E  1298       9.755  24.066  24.548  1.00 31.16     0.144 A 
HETATM    6  C15 T3E  1298       9.080  23.058  23.896  1.00 30.88     0.081 A 
ENDROOT
BRANCH   3   7
HETATM    7  N4  T3E  1298       7.176  25.305  26.885  1.00 35.42    -0.227 NA
HETATM    8  H7  T3E  1298       7.863  26.018  27.167  1.00  0.00     0.136 HD
BRANCH   7   9
HETATM    9  C8  T3E  1298       5.973  26.064  26.569  1.00 37.10     0.016 A 
HETATM   10  C9  T3E  1298       4.975  25.508  25.763  1.00 37.96     0.048 A 
HETATM   11  C10 T3E  1298       3.812  26.238  25.468  1.00 39.10     0.076 A 
HETATM   12  C11 T3E  1298       3.644  27.511  25.988  1.00 39.25     0.025 A 
HETATM   13  C12 T3E  1298       4.632  28.065  26.802  1.00 38.73     0.003 A 
HETATM   14  C13 T3E  1298       5.795  27.339  27.091  1.00 38.03     0.024 A 
BRANCH  11  15
HETATM   15  S1  T3E  1298       2.551  25.531  24.434  1.00 45.36     0.239 S 
HETATM   16  O1  T3E  1298       2.631  24.089  24.459  1.00 46.11    -0.206 OA
HETATM   17  O2  T3E  1298       1.250  25.946  24.884  1.00 45.83    -0.206 OA
BRANCH  15  18
HETATM   18  N5  T3E  1298       2.839  26.081  22.914  1.00 40.22    -0.225 NA
HETATM   19  H9  T3E  1298       2.113  25.677  22.305  1.00  0.00     0.136 HD
HETATM   20  H10 T3E  1298       2.781  27.109  22.950  1.00  0.00     0.136 HD
ENDBRANCH  15  18
ENDBRANCH  11  15
ENDBRANCH   7   9
ENDBRANCH   3   7
BRANCH   1  21
HETATM   21  C5  T3E  1298       6.920  21.707  23.589  1.00 32.81     0.063 A 
HETATM   22  S2  T3E  1298       5.428  21.997  23.068  1.00 35.74    -0.046 SA
HETATM   23  C2  T3E  1298       5.009  20.526  22.506  1.00 35.25     0.188 A 
HETATM   24  N2  T3E  1298       6.076  19.649  22.710  1.00 34.02    -0.227 NA
HETATM   25  C3  T3E  1298       7.226  20.326  23.358  1.00 34.49     0.053 A 
HETATM   26  C4  T3E  1298       8.494  19.631  23.692  1.00 35.25     0.072 C 
BRANCH  23  27
HETATM   27  N1  T3E  1298       3.744  20.187  21.902  1.00 37.47    -0.270 NA
HETATM   28  C1  T3E  1298       3.530  18.859  21.371  1.00 39.02     0.180 C 
ENDBRANCH  23  27
ENDBRANCH   1  21
BRANCH   6  29
HETATM   29  C16 T3E  1298       9.807  22.287  22.837  1.00 29.46     0.074 C 
BRANCH  29  30
HETATM   30  N7  T3E  1298      10.378  21.708  22.031  1.00 28.79    -0.020 N 
HETATM   31  H15 T3E  1298       9.725  21.015  21.638  1.00  0.00     0.291 HD
HETATM   32  H17 T3E  1298      11.180  21.258  22.495  1.00  0.00     0.291 HD
HETATM   33  H16 T3E  1298      10.679  22.394  21.324  1.00  0.00     0.291 HD
ENDBRANCH  29  30
ENDBRANCH   6  29
TORSDOF 8
