REMARK  7 active torsions:
REMARK  status: ('A' for Active; 'I' for Inactive)
REMARK    1  A    between atoms: N1_2  and  C2_3 
REMARK    2  A    between atoms: C5_7  and  C6_8 
REMARK    3  A    between atoms: C7_10  and  N4_11 
REMARK    4  A    between atoms: N4_11  and  C8_12 
REMARK    5  A    between atoms: C12_16  and  N5_17 
REMARK    6  A    between atoms: C20_27  and  C21_28 
REMARK    7  A    between atoms: C21_28  and  N8_29 
ROOT
HETATM    1  C6  T3C  1299       7.951  21.588  22.704  1.00 53.61     0.100 A 
HETATM    2  N3  T3C  1299       7.336  22.399  23.612  1.00 53.79    -0.216 NA
HETATM    3  C7  T3C  1299       8.041  23.108  24.500  1.00 55.78     0.206 A 
HETATM    4  N7  T3C  1299       9.405  23.031  24.527  1.00 52.08    -0.229 NA
HETATM    5  C19 T3C  1299      10.079  22.238  23.634  1.00 52.09     0.144 A 
HETATM    6  C20 T3C  1299       9.364  21.503  22.703  1.00 54.10     0.081 A 
ENDROOT
BRANCH   3   7
HETATM    7  N4  T3C  1299       7.345  23.965  25.480  1.00 56.77    -0.227 NA
HETATM    8  H7  T3C  1299       7.978  24.762  25.637  1.00  0.00     0.136 HD
BRANCH   7   9
HETATM    9  C8  T3C  1299       6.105  24.590  25.217  1.00 55.81     0.017 A 
HETATM   10  C18 T3C  1299       5.219  24.074  24.279  1.00 56.52     0.053 A 
HETATM   11  C12 T3C  1299       3.972  24.724  24.037  1.00 57.07     0.031 A 
HETATM   12  C11 T3C  1299       3.642  25.895  24.759  1.00 57.24     0.029 A 
HETATM   13  C10 T3C  1299       4.540  26.418  25.712  1.00 57.94     0.004 A 
HETATM   14  C9  T3C  1299       5.761  25.777  25.946  1.00 56.54     0.024 A 
BRANCH  11  15
HETATM   15  N5  T3C  1299       3.020  24.179  23.043  1.00 55.09    -0.379 N 
HETATM   16  C13 T3C  1299       2.211  22.990  23.147  1.00 53.12     0.125 C 
HETATM   17  C14 T3C  1299       0.751  23.291  23.068  1.00 54.15     0.050 C 
HETATM   18  C15 T3C  1299       0.411  23.965  21.772  1.00 56.47     0.271 C 
HETATM   19  N6  T3C  1299       1.374  23.666  20.750  1.00 56.46     0.085 N 
HETATM   20  H17 T3C  1299       0.881  23.684  19.846  1.00  0.00     0.315 HD
HETATM   21  C16 T3C  1299       2.445  24.615  20.674  1.00 52.61     0.289 C 
HETATM   22  C17 T3C  1299       3.514  24.453  21.722  1.00 52.76     0.153 C 
ENDBRANCH  11  15
ENDBRANCH   7   9
ENDBRANCH   3   7
BRANCH   1  23
HETATM   23  C5  T3C  1299       7.155  20.895  21.790  1.00 54.44     0.063 A 
HETATM   24  C3  T3C  1299       7.131  19.527  21.437  1.00 54.80     0.053 A 
HETATM   25  N2  T3C  1299       6.227  19.169  20.499  1.00 55.84    -0.227 NA
HETATM   26  C4  T3C  1299       8.065  18.477  22.072  1.00 51.87     0.072 C 
HETATM   27  C2  T3C  1299       5.457  20.155  20.010  1.00 55.91     0.188 A 
HETATM   28  S1  T3C  1299       5.937  21.616  20.815  1.00 56.09    -0.046 SA
BRANCH  27  29
HETATM   29  N1  T3C  1299       4.431  20.039  19.013  1.00 54.99    -0.270 NA
HETATM   30  C1  T3C  1299       3.697  21.209  18.626  1.00 54.45     0.180 C 
ENDBRANCH  27  29
ENDBRANCH   1  23
BRANCH   6  31
HETATM   31  C21 T3C  1299      10.088  20.643  21.729  1.00 52.03     0.074 C 
BRANCH  31  32
HETATM   32  N8  T3C  1299      10.641  19.985  20.988  1.00 56.28    -0.020 N 
HETATM   33  H26 T3C  1299      10.172  19.068  20.991  1.00  0.00     0.291 HD
HETATM   34  H25 T3C  1299      11.616  19.918  21.314  1.00  0.00     0.291 HD
HETATM   35  H24 T3C  1299      10.575  20.445  20.069  1.00  0.00     0.291 HD
ENDBRANCH  31  32
ENDBRANCH   6  31
TORSDOF 7
