REMARK  10 active torsions:
REMARK  status: ('A' for Active; 'I' for Inactive)
REMARK    1  A    between atoms: C1_2  and  C17_21 
REMARK    2  A    between atoms: C3_4  and  C16_18 
REMARK    3  A    between atoms: C8_9  and  C10_11 
REMARK       I    between atoms: C17_21  and  N2_23 
REMARK    4  A    between atoms: N2_23  and  C18_24 
REMARK    5  A    between atoms: C18_24  and  C19_25 
REMARK    6  A    between atoms: C18_24  and  C26_33 
REMARK    7  A    between atoms: C19_25  and  C20_26 
REMARK    8  A    between atoms: C23_29  and  O4_32 
REMARK    9  A    between atoms: C26_33  and  O6_35 
REMARK   10  A    between atoms: C26_33  and  O5_34 
ROOT
HETATM    1  N1  2KD   301      -3.817  32.405  12.368  1.00 34.08    -0.243 NA
HETATM    2  C1  2KD   301      -4.555  31.292  12.430  1.00 34.81     0.126 A 
HETATM    3  C2  2KD   301      -5.763  31.288  13.129  1.00 34.98     0.056 A 
HETATM    4  C3  2KD   301      -6.202  32.449  13.775  1.00 35.59     0.055 A 
HETATM    5  C4  2KD   301      -5.408  33.615  13.687  1.00 34.51     0.011 A 
HETATM    6  C5  2KD   301      -4.205  33.548  12.952  1.00 34.23     0.069 A 
HETATM    7  C6  2KD   301      -3.383  34.677  12.834  1.00 34.61     0.033 A 
HETATM    8  C7  2KD   301      -3.737  35.879  13.420  1.00 34.88     0.014 A 
HETATM    9  C8  2KD   301      -4.942  35.990  14.138  1.00 35.70    -0.025 A 
HETATM   10  C9  2KD   301      -5.764  34.842  14.270  1.00 34.93     0.027 A 
ENDROOT
BRANCH   2  11
HETATM   11  C17 2KD   301      -4.022  30.054  11.779  1.00 34.96     0.270 C 
HETATM   12  N2  2KD   301      -2.687  29.953  11.638  1.00 34.16    -0.345 N 
HETATM   13  H9  2KD   301      -2.093  30.725  11.974  1.00  0.00     0.163 HD
HETATM   14  O3  2KD   301      -4.814  29.196  11.404  1.00 35.89    -0.266 OA
BRANCH  12  15
HETATM   15  C18 2KD   301      -2.056  28.800  11.032  1.00 33.81     0.157 C 
BRANCH  15  16
HETATM   16  C19 2KD   301      -2.132  28.905   9.472  1.00 32.77     0.069 C 
BRANCH  16  17
HETATM   17  C20 2KD   301      -1.249  30.078   8.961  1.00 30.76    -0.056 A 
HETATM   18  C21 2KD   301      -1.730  31.405   9.022  1.00 29.94     0.010 A 
HETATM   19  C22 2KD   301      -0.919  32.474   8.580  1.00 29.47     0.037 A 
HETATM   20  C23 2KD   301       0.330  32.219   7.986  1.00 29.72     0.065 A 
HETATM   21  C24 2KD   301       0.763  30.888   7.828  1.00 29.74     0.037 A 
HETATM   22  C25 2KD   301       0.014  29.829   8.371  1.00 30.46     0.010 A 
BRANCH  20  23
HETATM   23  O4  2KD   301       1.137  33.299   7.591  1.00 29.39    -0.361 OA
HETATM   24  H17 2KD   301       0.624  34.160   7.828  1.00  0.00     0.217 HD
ENDBRANCH  20  23
ENDBRANCH  16  17
ENDBRANCH  15  16
BRANCH  15  25
HETATM   25  C26 2KD   301      -0.616  28.739  11.483  1.00 35.72     0.243 C 
BRANCH  25  26
HETATM   26  O6  2KD   301       0.094  27.715  10.990  1.00 37.11    -0.354 OA
HETATM   27  C27 2KD   301       1.469  27.656  11.439  1.00 37.38     0.205 C 
ENDBRANCH  25  26
BRANCH  25  28
HETATM   28  O5  2KD   301      -0.165  29.572  12.261  1.00 36.01    -0.359 OA
HETATM   29  H18 2KD   301       0.818  29.320  12.436  1.00  0.00     0.213 HD
ENDBRANCH  25  28
ENDBRANCH  15  25
ENDBRANCH  12  15
ENDBRANCH   2  11
BRANCH   4  30
HETATM   30  C16 2KD   301      -7.526  32.392  14.509  1.00 37.12     0.210 C 
HETATM   31  O1  2KD   301      -8.539  31.956  13.900  1.00 38.01    -0.644 OA
HETATM   32  O2  2KD   301      -7.605  32.801  15.699  1.00 37.07    -0.644 OA
ENDBRANCH   4  30
BRANCH   9  33
HETATM   33  C10 2KD   301      -5.315  37.296  14.744  1.00 36.57    -0.024 A 
HETATM   34  C15 2KD   301      -5.053  38.501  14.074  1.00 37.25     0.012 A 
HETATM   35  C14 2KD   301      -5.390  39.736  14.653  1.00 38.08     0.003 A 
HETATM   36  C13 2KD   301      -5.990  39.781  15.907  1.00 38.54     0.024 A 
HETATM   37  C12 2KD   301      -6.253  38.583  16.592  1.00 39.22     0.034 A 
HETATM   38 CL1  2KD   301      -6.979  38.625  18.180  1.00 40.51    -0.084 Cl
HETATM   39  C11 2KD   301      -5.913  37.347  16.013  1.00 38.07     0.036 A 
ENDBRANCH   9  33
TORSDOF 10
