REMARK  9 active torsions:
REMARK  status: ('A' for Active; 'I' for Inactive)
REMARK    1  A    between atoms: O1_1  and  C1_2 
REMARK    2  A    between atoms: C1_2  and  C2_3 
REMARK    3  A    between atoms: C2_3  and  N1_6 
REMARK    4  A    between atoms: C2_3  and  C3_4 
REMARK    5  A    between atoms: N1_6  and  C5_7 
REMARK    6  A    between atoms: N3_10  and  C7_11 
REMARK    7  A    between atoms: C12_17  and  N6_19 
REMARK    8  A    between atoms: N6_19  and  C13_20 
REMARK    9  A    between atoms: C13_20  and  C14_21 
ROOT
HETATM    1  C5  RRC   299      -5.835 -22.178  22.495  1.00 17.28     0.748 A 
HETATM    2  N2  RRC   299      -6.913 -21.390  22.311  1.00 15.47    -0.040 NA
HETATM    3  C6  RRC   299      -8.067 -21.698  22.954  1.00 15.92     0.187 A 
HETATM    4  N3  RRC   299      -9.213 -21.068  22.929  1.00 16.15    -0.296 N 
HETATM    5  C10 RRC   299     -10.104 -21.733  23.695  1.00 15.64     0.216 A 
HETATM    6  N4  RRC   299      -9.452 -22.790  24.257  1.00 15.39    -0.236 NA
HETATM    7  C11 RRC   299      -8.182 -22.784  23.792  1.00 16.50     0.153 A 
HETATM    8  C12 RRC   299      -7.055 -23.580  23.964  1.00 15.75     0.197 A 
HETATM    9  N5  RRC   299      -5.912 -23.257  23.310  1.00 15.20    -0.039 NA
ENDROOT
BRANCH   8  10
HETATM   10  N6  RRC   299      -7.103 -24.655  24.780  1.00 16.52    -0.264 NA
BRANCH  10  11
HETATM   11  C13 RRC   299      -5.925 -25.508  24.945  1.00 16.76     0.189 C 
BRANCH  11  12
HETATM   12  C14 RRC   299      -5.233 -25.332  26.263  1.00 19.86    -0.038 A 
HETATM   13  C15 RRC   299      -5.966 -25.317  27.443  1.00 20.09     0.009 A 
HETATM   14  C16 RRC   299      -5.308 -25.162  28.660  1.00 21.93     0.001 A 
HETATM   15  C17 RRC   299      -3.923 -25.029  28.685  1.00 20.86     0.000 A 
HETATM   16  C18 RRC   299      -3.190 -25.048  27.500  1.00 22.73     0.001 A 
HETATM   17  C19 RRC   299      -3.842 -25.203  26.281  1.00 21.80     0.009 A 
ENDBRANCH  11  12
ENDBRANCH  10  11
ENDBRANCH   8  10
BRANCH   1  18
HETATM   18  N1  RRC   299      -4.671 -21.888  21.867  1.00 14.77    -0.096 NA
BRANCH  18  19
HETATM   19  C2  RRC   299      -4.543 -20.757  20.963  1.00 16.14     0.150 C 
BRANCH  19  20
HETATM   20  C3  RRC   299      -4.286 -21.391  19.583  1.00 18.36     0.025 C 
HETATM   21  C4  RRC   299      -5.530 -21.943  18.899  1.00 16.18     0.007 C 
ENDBRANCH  19  20
BRANCH  19  22
HETATM   22  C1  RRC   299      -3.326 -19.939  21.416  1.00 19.71     0.192 C 
BRANCH  22  23
HETATM   23  O1  RRC   299      -2.221 -20.800  21.738  1.00 20.05    -0.399 OA
HETATM   24  H1  RRC   299      -1.442 -20.193  22.032  1.00  0.00     0.209 HD
ENDBRANCH  22  23
ENDBRANCH  19  22
ENDBRANCH  18  19
ENDBRANCH   1  18
BRANCH   4  25
HETATM   25  C7  RRC   299      -9.232 -19.930  22.006  1.00 15.86    -0.011 C 
HETATM   26  C9  RRC   299      -9.027 -18.493  22.528  1.00 15.31     0.063 C 
HETATM   27  C8  RRC   299     -10.071 -20.159  20.737  1.00 15.16     0.063 C 
ENDBRANCH   4  25
TORSDOF 9
