REMARK  11 active torsions:
REMARK  status: ('A' for Active; 'I' for Inactive)
REMARK    1  A    between atoms: C1_1  and  N5_18 
REMARK    2  A    between atoms: C2_3  and  O1_4 
REMARK    3  A    between atoms: O1_4  and  C3_5 
REMARK    4  A    between atoms: C3_5  and  C4_6 
REMARK    5  A    between atoms: C10_12  and  N2_13 
REMARK    6  A    between atoms: N2_13  and  O2_14 
REMARK    7  A    between atoms: C11_15  and  N3_16 
REMARK    8  A    between atoms: N5_18  and  C12_19 
REMARK    9  A    between atoms: C15_22  and  C18_25 
REMARK   10  A    between atoms: C18_25  and  O3_27 
REMARK   11  A    between atoms: C18_25  and  N6_26 
ROOT
HETATM    1  C1  ST8  1298       8.115  44.009  50.134  1.00 24.17     0.210 A 
HETATM    2  N1  ST8  1298       7.115  44.547  50.848  1.00 26.17    -0.191 NA
HETATM    3  C2  ST8  1298       7.331  45.464  51.797  1.00 28.25     0.203 A 
HETATM    4  C10 ST8  1298       8.703  45.882  52.069  1.00 27.64     0.181 A 
HETATM    5  C11 ST8  1298       9.758  45.245  51.257  1.00 27.89     0.160 A 
HETATM    6  N4  ST8  1298       9.401  44.335  50.315  1.00 26.44    -0.198 NA
ENDROOT
BRANCH   1   7
HETATM    7  N5  ST8  1298       7.820  43.085  49.225  1.00 27.24    -0.227 NA
HETATM    8  H17 ST8  1298       8.477  42.333  49.476  1.00  0.00     0.136 HD
BRANCH   7   9
HETATM    9  C12 ST8  1298       6.606  42.435  49.179  1.00 27.90     0.015 A 
HETATM   10  C17 ST8  1298       6.189  41.906  47.957  1.00 25.78     0.025 A 
HETATM   11  C16 ST8  1298       4.987  41.253  47.817  1.00 27.22     0.017 A 
HETATM   12  C15 ST8  1298       4.154  41.087  48.922  1.00 31.84     0.014 A 
HETATM   13  C14 ST8  1298       4.561  41.625  50.157  1.00 31.91     0.017 A 
HETATM   14  C13 ST8  1298       5.790  42.283  50.302  1.00 28.18     0.025 A 
BRANCH  12  15
HETATM   15  C18 ST8  1298       2.801  40.409  48.728  1.00 34.35     0.143 C 
BRANCH  15  16
HETATM   16  O3  ST8  1298       2.204  40.639  47.683  1.00 34.53    -0.346 OA
HETATM   17  H24 ST8  1298       1.294  40.161  47.745  1.00  0.00     0.219 HD
ENDBRANCH  15  16
BRANCH  15  18
HETATM   18  N6  ST8  1298       2.151  39.602  49.702  1.00 35.48    -0.380 N 
HETATM   19  H23 ST8  1298       2.596  39.441  50.617  1.00  0.00     0.158 HD
HETATM   20  H22 ST8  1298       1.236  39.179  49.492  1.00  0.00     0.158 HD
ENDBRANCH  15  18
ENDBRANCH  12  15
ENDBRANCH   7   9
ENDBRANCH   1   7
BRANCH   5  21
HETATM   21  N3  ST8  1298      11.053  45.544  51.446  1.00 28.12    -0.382 N 
HETATM   22  H15 ST8  1298      11.776  45.090  50.870  1.00  0.00     0.157 HD
HETATM   23  H16 ST8  1298      11.324  46.228  52.167  1.00  0.00     0.157 HD
ENDBRANCH   5  21
BRANCH   3  24
HETATM   24  O1  ST8  1298       6.298  46.082  52.422  1.00 31.69    -0.332 OA
BRANCH  24  25
HETATM   25  C3  ST8  1298       4.972  45.654  52.134  1.00 33.36     0.182 C 
BRANCH  25  26
HETATM   26  C4  ST8  1298       4.094  46.091  53.275  1.00 35.52     0.010 C 
HETATM   27  C9  ST8  1298       2.656  45.782  52.906  1.00 36.10     0.007 C 
HETATM   28  C8  ST8  1298       1.781  46.339  54.016  1.00 37.50     0.000 C 
HETATM   29  C7  ST8  1298       2.217  45.759  55.373  1.00 38.89     0.000 C 
HETATM   30  C6  ST8  1298       3.710  45.915  55.664  1.00 38.01     0.000 C 
HETATM   31  C5  ST8  1298       4.489  45.307  54.519  1.00 36.29     0.007 C 
ENDBRANCH  25  26
ENDBRANCH  24  25
ENDBRANCH   3  24
BRANCH   4  32
HETATM   32  N2  ST8  1298       8.936  46.812  53.065  1.00 29.54    -0.128 NA
BRANCH  32  33
HETATM   33  O2  ST8  1298      10.067  47.174  53.296  1.00 32.60    -0.266 OA
HETATM   34  H14 ST8  1298      10.684  46.669  52.644  1.00  0.00     0.247 HD
ENDBRANCH  32  33
ENDBRANCH   4  32
TORSDOF 11
