REMARK  5 active torsions:
REMARK  status: ('A' for Active; 'I' for Inactive)
REMARK    1  A    between atoms: N2_6  and  C5_7 
REMARK    2  A    between atoms: C8_10  and  N3_13 
REMARK    3  A    between atoms: N3_13  and  C11_14 
REMARK    4  A    between atoms: C12_16  and  C15_20 
REMARK    5  A    between atoms: C16_22  and  O1_23 
ROOT
HETATM    1  C11 Y8L  1299      24.842  30.429  28.472  1.00 27.37     0.749 A 
HETATM    2  N4  Y8L  1299      25.786  29.832  27.713  1.00 31.61    -0.060 NA
HETATM    3  C12 Y8L  1299      26.865  30.501  27.258  1.00 35.22     0.096 A 
HETATM    4  C13 Y8L  1299      26.946  31.872  27.505  1.00 26.98     0.053 A 
HETATM    5  C14 Y8L  1299      25.945  32.478  28.244  1.00 31.51     0.139 A 
HETATM    6  N5  Y8L  1299      24.930  31.755  28.691  1.00 42.38    -0.073 NA
ENDROOT
BRANCH   1   7
HETATM    7  N3  Y8L  1299      23.753  29.812  28.968  1.00 35.63    -0.061 NA
BRANCH   7   8
HETATM    8  C8  Y8L  1299      23.358  28.543  28.754  1.00 27.04     0.076 A 
HETATM    9  C7  Y8L  1299      23.819  27.755  27.710  1.00 40.76     0.034 A 
HETATM   10  C6  Y8L  1299      23.389  26.428  27.566  1.00 31.86     0.031 A 
HETATM   11  C5  Y8L  1299      22.470  25.869  28.457  1.00 39.37     0.030 A 
HETATM   12  C10 Y8L  1299      22.009  26.643  29.518  1.00 30.87     0.031 A 
HETATM   13  C9  Y8L  1299      22.471  27.957  29.661  1.00 36.26     0.034 A 
BRANCH  11  14
HETATM   14  N2  Y8L  1299      21.999  24.549  28.282  1.00 28.21    -0.378 N 
HETATM   15  C1  Y8L  1299      21.030  24.009  29.256  1.00 43.26     0.153 C 
HETATM   16  C2  Y8L  1299      20.870  22.477  29.251  1.00 41.83     0.289 C 
HETATM   17  N1  Y8L  1299      21.724  21.821  28.249  1.00 33.31     0.086 N 
HETATM   18  C3  Y8L  1299      21.547  22.504  26.975  1.00 35.13     0.289 C 
HETATM   19  H5  Y8L  1299      21.468  20.828  28.155  1.00  0.00     0.316 HD
HETATM   20  C4  Y8L  1299      22.313  23.826  27.037  1.00 38.31     0.153 C 
ENDBRANCH  11  14
ENDBRANCH   7   8
ENDBRANCH   1   7
BRANCH   3  21
HETATM   21  C15 Y8L  1299      27.837  29.897  26.443  1.00 30.22     0.060 A 
HETATM   22  S1  Y8L  1299      29.207  30.663  25.737  1.00 27.68    -0.043 SA
HETATM   23  C16 Y8L  1299      29.677  29.286  24.871  1.00 33.30     0.187 A 
HETATM   24  N6  Y8L  1299      28.842  28.279  25.139  1.00 36.20    -0.329 N 
HETATM   25  C17 Y8L  1299      29.025  26.926  24.541  1.00 42.71     0.159 C 
HETATM   26  C18 Y8L  1299      27.837  28.572  25.975  1.00 34.39     0.029 A 
HETATM   27  C19 Y8L  1299      26.804  27.516  26.378  1.00 32.30     0.070 C 
BRANCH  23  28
HETATM   28  O1  Y8L  1299      30.676  29.188  24.162  1.00 30.84    -0.340 OA
HETATM   29  H16 Y8L  1299      31.162  30.095  24.199  1.00  0.00     0.220 HD
ENDBRANCH  23  28
ENDBRANCH   3  21
TORSDOF 5
