REMARK  6 active torsions:
REMARK  status: ('A' for Active; 'I' for Inactive)
REMARK    1  A    between atoms: C4_5  and  C7_9 
REMARK    2  A    between atoms: C5_6  and  O1_8 
REMARK    3  A    between atoms: C9_12  and  C16_22 
REMARK    4  A    between atoms: C11_14  and  O3_15 
REMARK    5  A    between atoms: C13_17  and  O4_18 
REMARK    6  A    between atoms: C15_20  and  O5_21 
ROOT
HETATM    1  C7  CPB   940      51.484 -16.397 -12.750  1.00 76.57     0.017 A 
HETATM    2  C8  CPB   940      52.813 -16.066 -12.998  1.00 80.26     0.101 A 
HETATM    3  O2  CPB   940      53.758 -17.050 -12.914  1.00 78.31    -0.308 OA
HETATM    4  C9  CPB   940      55.078 -16.814 -13.168  1.00 74.34     0.090 A 
HETATM    5  C10 CPB   940      55.533 -15.543 -13.492  1.00 67.94     0.075 A 
HETATM    6  C11 CPB   940      54.627 -14.502 -13.591  1.00 65.49     0.084 A 
HETATM    7  C12 CPB   940      53.191 -14.774 -13.331  1.00 73.46     0.065 A 
HETATM    8  C13 CPB   940      52.228 -13.777 -13.406  1.00 70.56     0.084 A 
HETATM    9  C14 CPB   940      50.899 -14.091 -13.148  1.00 70.52     0.074 A 
HETATM   10  C15 CPB   940      50.522 -15.385 -12.802  1.00 71.60     0.077 A 
ENDROOT
BRANCH   1  11
HETATM   11  C4  CPB   940      51.217 -17.820 -12.368  1.00 65.93     0.056 C 
HETATM   12  C3  CPB   940      50.857 -17.939 -10.898  1.00 66.54     0.031 C 
HETATM   13  C2  CPB   940      50.970 -19.394 -10.465  1.00 67.60     0.117 C 
HETATM   14  N1  CPB   940      50.202 -20.238 -11.384  1.00 66.64    -0.414 N 
HETATM   15  C6  CPB   940      50.131 -20.036 -12.840  1.00 58.37     0.148 C 
HETATM   16  C1  CPB   940      49.498 -21.364 -10.792  1.00 64.38     0.143 C 
HETATM   17  C5  CPB   940      50.179 -18.556 -13.211  1.00 62.22     0.144 C 
BRANCH  17  18
HETATM   18  O1  CPB   940      48.876 -18.011 -13.001  1.00 73.70    -0.393 OA
HETATM   19  H12 CPB   940      48.922 -17.014 -13.255  1.00  0.00     0.210 HD
ENDBRANCH  17  18
ENDBRANCH   1  11
BRANCH  10  20
HETATM   20  O5  CPB   940      49.204 -15.619 -12.561  1.00 70.64    -0.360 OA
HETATM   21  H17 CPB   940      49.110 -16.623 -12.353  1.00  0.00     0.217 HD
ENDBRANCH  10  20
BRANCH   8  22
HETATM   22  O4  CPB   940      52.579 -12.504 -13.732  1.00 64.27    -0.360 OA
HETATM   23  H15 CPB   940      53.598 -12.501 -13.881  1.00  0.00     0.217 HD
ENDBRANCH   8  22
BRANCH   6  24
HETATM   24  O3  CPB   940      55.023 -13.364 -13.894  1.00 65.23    -0.360 OA
HETATM   25  H14 CPB   940      56.043 -13.425 -14.024  1.00  0.00     0.217 HD
ENDBRANCH   6  24
BRANCH   4  26
HETATM   26  C16 CPB   940      56.037 -17.929 -12.996  1.00 80.75     0.020 A 
HETATM   27  C17 CPB   940      55.682 -19.267 -13.131  1.00 81.20     0.047 A 
HETATM   28 CL1  CPB   940      54.034 -19.767 -13.643  1.00223.93    -0.083 Cl
HETATM   29  C18 CPB   940      56.642 -20.248 -12.893  1.00 78.70     0.025 A 
HETATM   30  C19 CPB   940      57.929 -19.895 -12.501  1.00 77.61     0.002 A 
HETATM   31  C20 CPB   940      58.272 -18.559 -12.333  1.00 78.19     0.001 A 
HETATM   32  C21 CPB   940      57.316 -17.581 -12.569  1.00 79.48     0.016 A 
ENDBRANCH   4  26
TORSDOF 6
