REMARK  3 active torsions:
REMARK  status: ('A' for Active; 'I' for Inactive)
REMARK    1  A    between atoms: C1_1  and  C7_7 
REMARK       I    between atoms: N3_17  and  C14_18 
REMARK    2  A    between atoms: C14_18  and  C15_19 
REMARK    3  A    between atoms: C15_19  and  C16_20 
ROOT
HETATM    1  C7  A07   299      39.868  -8.636  24.640  1.00 33.34    -0.003 A 
HETATM    2  C8  A07   299      39.315  -8.695  23.351  1.00123.01     0.047 A 
HETATM    3 CL1  A07   299      37.980  -7.688  22.898  1.00 39.36    -0.083 Cl
HETATM    4  C9  A07   299      39.816  -9.603  22.415  1.00 59.82     0.059 A 
HETATM    5  C10 A07   299      40.869 -10.453  22.762  1.00 61.90     0.095 A 
HETATM    6  C11 A07   299      41.435 -10.396  24.032  1.00 32.92     0.043 A 
HETATM    7  C12 A07   299      40.956  -9.458  24.959  1.00 57.75     0.031 A 
HETATM    8  C13 A07   299      42.477 -11.321  23.968  1.00 45.67     0.165 A 
HETATM    9  N1  A07   299      42.429 -11.889  22.766  1.00 32.47    -0.130 NA
HETATM   10  N2  A07   299      41.561 -11.349  22.064  1.00 15.65    -0.147 NA
HETATM   11  N3  A07   299      43.329 -11.759  24.918  1.00 39.46    -0.310 N 
HETATM   12  C14 A07   299      43.473 -11.349  26.189  1.00 25.87     0.223 C 
HETATM   13  O1  A07   299      42.830 -10.459  26.745  1.00113.99    -0.273 OA
HETATM   14  H8  A07   299      43.961 -12.518  24.626  1.00  0.00     0.170 HD
ENDROOT
BRANCH  12  15
HETATM   15  C15 A07   299      44.544 -12.111  26.981  1.00 46.27     0.103 C 
BRANCH  15  16
HETATM   16  C16 A07   299      45.923 -11.440  26.932  1.00 14.73     0.005 C 
HETATM   17  C17 A07   299      45.856  -9.934  27.215  1.00 13.78     0.005 C 
ENDBRANCH  15  16
ENDBRANCH  12  15
BRANCH   1  18
HETATM   18  C1  A07   299      39.427  -7.687  25.562  1.00 37.18    -0.024 A 
HETATM   19  C6  A07   299      38.183  -7.805  26.190  1.00 72.08     0.012 A 
HETATM   20  C5  A07   299      37.764  -6.832  27.106  1.00 29.21     0.001 A 
HETATM   21  C4  A07   299      38.575  -5.725  27.379  1.00 28.91     0.000 A 
HETATM   22  C3  A07   299      39.820  -5.607  26.754  1.00 36.64     0.001 A 
HETATM   23  C2  A07   299      40.244  -6.587  25.851  1.00 40.55     0.012 A 
ENDBRANCH   1  18
TORSDOF 3
