REMARK  8 active torsions:
REMARK  status: ('A' for Active; 'I' for Inactive)
REMARK    1  A    between atoms: N1_2  and  C2_3 
REMARK    2  A    between atoms: C5_7  and  C6_8 
REMARK    3  A    between atoms: C7_10  and  N4_11 
REMARK    4  A    between atoms: N4_11  and  C8_12 
REMARK    5  A    between atoms: C10_14  and  S1_15 
REMARK    6  A    between atoms: S1_15  and  N5_16 
REMARK    7  A    between atoms: C20_30  and  C21_31 
REMARK    8  A    between atoms: C21_31  and  N7_32 
ROOT
HETATM    1  C6  T7Z  1297       7.557  22.046  23.325  1.00 43.99     0.100 A 
HETATM    2  N3  T7Z  1297       7.066  22.834  24.316  1.00 43.99    -0.216 NA
HETATM    3  C7  T7Z  1297       7.873  23.666  25.016  1.00 38.91     0.206 A 
HETATM    4  N6  T7Z  1297       9.185  23.723  24.775  1.00 39.46    -0.229 NA
HETATM    5  C19 T7Z  1297       9.746  22.963  23.816  1.00 40.82     0.144 A 
HETATM    6  C20 T7Z  1297       8.927  22.087  23.047  1.00 41.26     0.081 A 
ENDROOT
BRANCH   3   7
HETATM    7  N4  T7Z  1297       7.345  24.498  26.068  1.00 40.14    -0.227 NA
HETATM    8  H7  T7Z  1297       7.977  25.309  26.015  1.00  0.00     0.136 HD
BRANCH   7   9
HETATM    9  C8  T7Z  1297       6.028  25.143  26.080  1.00 41.61     0.016 A 
HETATM   10  C18 T7Z  1297       5.598  25.671  27.307  1.00 40.95     0.024 A 
HETATM   11  C17 T7Z  1297       4.339  26.308  27.425  1.00 42.51     0.010 A 
HETATM   12  C15 T7Z  1297       3.514  26.415  26.316  1.00 43.18    -0.039 A 
HETATM   13  C10 T7Z  1297       3.930  25.891  25.066  1.00 42.08     0.087 A 
HETATM   14  C16 T7Z  1297       2.198  27.097  26.497  1.00 40.70     0.050 C 
HETATM   15  C9  T7Z  1297       5.197  25.243  24.954  1.00 39.88     0.049 A 
BRANCH  13  16
HETATM   16  S1  T7Z  1297       2.852  26.034  23.612  1.00 68.92     0.261 S 
HETATM   17  O3  T7Z  1297       3.579  25.792  22.395  1.00 70.63    -0.200 OA
HETATM   18  O2  T7Z  1297       2.274  27.350  23.558  1.00 69.45    -0.200 OA
BRANCH  16  19
HETATM   19  N5  T7Z  1297       1.713  24.862  23.751  1.00105.88    -0.303 N 
HETATM   20  C14 T7Z  1297       2.092  23.564  23.835  1.00104.31     0.161 C 
HETATM   21  C13 T7Z  1297       0.940  22.635  24.022  1.00104.47     0.188 C 
HETATM   22  O1  T7Z  1297      -0.202  22.986  23.188  1.00105.71    -0.388 OA
HETATM   23  C12 T7Z  1297      -0.564  24.359  23.501  1.00105.98     0.188 C 
HETATM   24  C11 T7Z  1297       0.561  25.291  23.187  1.00106.34     0.161 C 
ENDBRANCH  16  19
ENDBRANCH  13  16
ENDBRANCH   7   9
ENDBRANCH   3   7
BRANCH   1  25
HETATM   25  C5  T7Z  1297       6.566  21.140  22.573  1.00 51.43     0.063 A 
HETATM   26  C3  T7Z  1297       6.760  19.759  22.168  1.00 59.17     0.053 A 
HETATM   27  N2  T7Z  1297       5.516  19.244  21.477  1.00 68.53    -0.227 NA
HETATM   28  C4  T7Z  1297       8.007  18.896  22.377  1.00 55.04     0.072 C 
HETATM   29  C2  T7Z  1297       4.513  20.243  21.429  1.00 74.09     0.188 A 
HETATM   30  S2  T7Z  1297       5.065  21.630  22.147  1.00 72.12    -0.046 SA
BRANCH  29  31
HETATM   31  N1  T7Z  1297       3.195  20.036  20.821  1.00 75.16    -0.270 NA
HETATM   32  C1  T7Z  1297       2.803  18.721  20.410  1.00 74.04     0.180 C 
ENDBRANCH  29  31
ENDBRANCH   1  25
BRANCH   6  33
HETATM   33  C21 T7Z  1297       9.557  21.258  21.974  1.00 38.06     0.074 C 
BRANCH  33  34
HETATM   34  N7  T7Z  1297      10.068  20.625  21.152  1.00 33.65    -0.020 N 
HETATM   35  H25 T7Z  1297      10.690  19.957  21.629  1.00  0.00     0.291 HD
HETATM   36  H24 T7Z  1297      10.594  21.277  20.553  1.00  0.00     0.291 HD
HETATM   37  H23 T7Z  1297       9.319  20.146  20.632  1.00  0.00     0.291 HD
ENDBRANCH  33  34
ENDBRANCH   6  33
TORSDOF 8
