REMARK  4 active torsions:
REMARK  status: ('A' for Active; 'I' for Inactive)
REMARK    1  A    between atoms: C3_4  and  N2_5 
REMARK    2  A    between atoms: C5_8  and  C6_9 
REMARK    3  A    between atoms: N5_15  and  C10_16 
REMARK    4  A    between atoms: C13_19  and  O1_22 
ROOT
HETATM    1  C6  CK6   500       0.520   5.234  26.718  1.00 43.84     0.096 A 
HETATM    2  C7  CK6   500       0.151   3.925  27.058  1.00 42.09     0.053 A 
HETATM    3  C8  CK6   500       1.033   3.290  27.935  1.00 43.09     0.139 A 
HETATM    4  N3  CK6   500       2.179   3.833  28.465  1.00 41.80    -0.073 NA
HETATM    5  C9  CK6   500       2.455   5.119  28.075  1.00 42.87     0.749 A 
HETATM    6  N4  CK6   500       1.643   5.803  27.215  1.00 43.01    -0.060 NA
HETATM    7  N5  CK6   500       3.561   5.687  28.573  1.00 43.23    -0.061 NA
ENDROOT
BRANCH   7   8
HETATM    8  C10 CK6   500       4.094   6.957  28.349  1.00 45.55     0.076 A 
HETATM    9  C15 CK6   500       5.289   7.398  28.990  1.00 46.78     0.035 A 
HETATM   10  C14 CK6   500       5.813   8.691  28.749  1.00 47.35     0.039 A 
HETATM   11  C13 CK6   500       5.157   9.568  27.859  1.00 49.05     0.065 A 
HETATM   12  C12 CK6   500       3.993   9.144  27.228  1.00 47.81     0.039 A 
HETATM   13  C11 CK6   500       3.498   7.887  27.478  1.00 46.31     0.035 A 
BRANCH  11  14
HETATM   14  O1  CK6   500       5.602  10.853  27.560  1.00 52.55    -0.361 OA
HETATM   15  H13 CK6   500       4.933  11.254  26.887  1.00  0.00     0.217 HD
ENDBRANCH  11  14
ENDBRANCH   7   8
BRANCH   1  16
HETATM   16  C5  CK6   500      -0.303   6.069  25.802  1.00 47.18     0.062 A 
HETATM   17  C2  CK6   500      -1.487   5.893  25.148  1.00 47.49     0.053 A 
HETATM   18  C1  CK6   500      -2.460   4.753  25.077  1.00 46.60     0.072 C 
HETATM   19  N1  CK6   500      -1.823   6.990  24.436  1.00 49.56    -0.227 NA
HETATM   20  C3  CK6   500      -1.031   8.017  24.460  1.00 51.04     0.188 A 
HETATM   21  S1  CK6   500       0.364   7.708  25.472  1.00 49.29    -0.046 SA
BRANCH  20  22
HETATM   22  N2  CK6   500      -1.323   9.116  23.777  1.00 53.38    -0.270 NA
HETATM   23  C4  CK6   500      -0.527  10.344  23.712  1.00 54.99     0.180 C 
ENDBRANCH  20  22
ENDBRANCH   1  16
TORSDOF 4
