REMARK  7 active torsions:
REMARK  status: ('A' for Active; 'I' for Inactive)
REMARK    1  A    between atoms: C1_1  and  C15_19 
REMARK    2  A    between atoms: C6_8  and  N3_18 
REMARK    3  A    between atoms: C7_9  and  C8_10 
REMARK    4  A    between atoms: C8_10  and  C9_11 
REMARK    5  A    between atoms: C8_10  and  O1_17 
REMARK    6  A    between atoms: C15_19  and  C16_20 
REMARK    7  A    between atoms: C15_19  and  O2_28 
ROOT
HETATM    1  C1  PM1   700      12.164  -8.888  22.864  1.00 47.04     0.014 A 
HETATM    2  C2  PM1   700      13.034  -9.259  23.935  1.00 47.56     0.113 A 
HETATM    3  N1  PM1   700      13.976 -10.250  23.842  1.00 48.32    -0.300 N 
HETATM    4  C3  PM1   700      14.134 -10.948  22.596  1.00 47.99     0.136 A 
HETATM    5  C4  PM1   700      13.315 -10.645  21.504  1.00 46.98     0.052 A 
HETATM    6  C5  PM1   700      12.335  -9.604  21.629  1.00 47.07     0.019 A 
HETATM    7  N2  PM1   700      15.113 -11.872  22.730  1.00 47.92    -0.211 NA
HETATM    8  C6  PM1   700      15.594 -11.795  23.983  1.00 48.78     0.154 A 
HETATM    9  C7  PM1   700      14.941 -10.778  24.721  1.00 49.31     0.120 A 
ENDROOT
BRANCH   1  10
HETATM   10  C15 PM1   700      11.107  -7.797  22.975  1.00 46.95     0.093 C 
BRANCH  10  11
HETATM   11  C16 PM1   700      10.944  -7.050  24.311  1.00 46.68     0.075 A 
HETATM   12  C21 PM1   700      11.928  -6.094  24.883  1.00 47.02     0.132 A 
HETATM   13  F1  PM1   700      13.091  -5.809  24.278  1.00 47.44    -0.205 F 
HETATM   14  C20 PM1   700      11.707  -5.431  26.137  1.00 46.62     0.043 A 
HETATM   15  C19 PM1   700      10.496  -5.677  26.858  1.00 46.39     0.006 A 
HETATM   16  C18 PM1   700       9.519  -6.589  26.342  1.00 46.41     0.043 A 
HETATM   17  C17 PM1   700       9.752  -7.248  25.088  1.00 46.21     0.132 A 
HETATM   18  F2  PM1   700       8.800  -8.083  24.669  1.00 45.81    -0.205 F 
ENDBRANCH  10  11
BRANCH  10  19
HETATM   19  O2  PM1   700      10.379  -7.517  21.989  1.00 46.35    -0.359 OA
HETATM   20  H15 PM1   700       9.744  -6.763  22.288  1.00  0.00     0.218 HD
ENDBRANCH  10  19
ENDBRANCH   1  10
BRANCH   9  21
HETATM   21  C8  PM1   700      15.293 -10.497  26.129  1.00 50.61     0.107 C 
BRANCH  21  22
HETATM   22  C9  PM1   700      14.660  -9.462  26.984  1.00 51.33    -0.001 A 
HETATM   23  C10 PM1   700      13.397  -9.737  27.636  1.00 51.93     0.014 A 
HETATM   24  C11 PM1   700      12.778  -8.733  28.471  1.00 51.95     0.001 A 
HETATM   25  C12 PM1   700      13.423  -7.470  28.649  1.00 51.90     0.000 A 
HETATM   26  C13 PM1   700      14.668  -7.193  28.000  1.00 52.00     0.001 A 
HETATM   27  C14 PM1   700      15.293  -8.184  27.167  1.00 51.70     0.014 A 
ENDBRANCH  21  22
BRANCH  21  28
HETATM   28  O1  PM1   700      16.219 -11.172  26.628  1.00 51.96    -0.357 OA
HETATM   29  H9  PM1   700      16.349 -10.837  27.593  1.00  0.00     0.218 HD
ENDBRANCH  21  28
ENDBRANCH   9  21
BRANCH   8  30
HETATM   30  N3  PM1   700      16.674 -12.647  24.481  1.00 48.51    -0.382 N 
HETATM   31  H11 PM1   700      17.104 -13.348  23.861  1.00  0.00     0.157 HD
HETATM   32  H10 PM1   700      17.004 -12.545  25.451  1.00  0.00     0.157 HD
ENDBRANCH   8  30
TORSDOF 7
