REMARK  5 active torsions:
REMARK  status: ('A' for Active; 'I' for Inactive)
REMARK    1  A    between atoms: N1_1  and  C1_2 
REMARK    2  A    between atoms: C3_6  and  N4_8 
REMARK    3  A    between atoms: N4_8  and  C5_9 
REMARK    4  A    between atoms: C8_12  and  S1_15 
REMARK    5  A    between atoms: S1_15  and  N5_18 
ROOT
HETATM    1  C5  U55   400       9.668  11.514  25.358  1.00 21.90     0.014 A 
HETATM    2  C6  U55   400       8.814  12.529  25.859  1.00 21.67     0.025 A 
HETATM    3  C7  U55   400       8.031  12.313  27.008  1.00 24.40     0.026 A 
HETATM    4  C8  U55   400       8.069  11.051  27.656  1.00 21.93     0.074 A 
HETATM    5  C9  U55   400       8.877  10.034  27.132  1.00 20.51     0.026 A 
HETATM    6  C10 U55   400       9.638  10.246  25.977  1.00 20.41     0.025 A 
ENDROOT
BRANCH   1   7
HETATM    7  N4  U55   400      10.461  11.752  24.308  1.00 22.35    -0.244 NA
HETATM    8  H5  U55   400       9.779  11.639  23.544  1.00  0.00     0.135 HD
BRANCH   7   9
HETATM    9  C3  U55   400      11.471  11.059  23.801  1.00 20.48     0.112 C 
HETATM   10  N3  U55   400      11.790  11.296  22.473  1.00 19.58    -0.230 NA
HETATM   11  C2  U55   400      12.828  10.644  21.928  1.00 21.18     0.237 C 
HETATM   12  N2  U55   400      13.708   9.833  22.638  1.00 23.38    -0.225 NA
HETATM   13  C1  U55   400      13.403   9.565  23.937  1.00 23.99     0.125 C 
HETATM   14  C4  U55   400      12.250  10.151  24.533  1.00 22.79     0.094 C 
BRANCH  13  15
HETATM   15  N1  U55   400      14.213   8.687  24.623  1.00 24.58    -0.384 N 
HETATM   16  H2  U55   400      15.021   8.256  24.151  1.00  0.00     0.157 HD
HETATM   17  H1  U55   400      14.011   8.462  25.608  1.00  0.00     0.157 HD
ENDBRANCH  13  15
ENDBRANCH   7   9
ENDBRANCH   1   7
BRANCH   4  18
HETATM   18  S1  U55   400       6.879  10.685  28.850  1.00 28.41     0.239 S 
HETATM   19  O1  U55   400       5.916   9.791  28.291  1.00 25.07    -0.206 OA
HETATM   20  O2  U55   400       6.197  11.981  29.160  1.00 26.07    -0.206 OA
BRANCH  18  21
HETATM   21  N5  U55   400       7.465  10.111  30.219  1.00 25.77    -0.225 NA
HETATM   22  H11 U55   400       7.969   9.243  29.990  1.00  0.00     0.136 HD
HETATM   23  H10 U55   400       6.662   9.935  30.840  1.00  0.00     0.136 HD
ENDBRANCH  18  21
ENDBRANCH   4  18
TORSDOF 5
