REMARK  6 active torsions:
REMARK  status: ('A' for Active; 'I' for Inactive)
REMARK    1  A    between atoms: C1_2  and  O1_3 
REMARK    2  A    between atoms: O1_3  and  C2_4 
REMARK    3  A    between atoms: C2_4  and  C3_5 
REMARK    4  A    between atoms: C9_11  and  N2_12 
REMARK    5  A    between atoms: N2_12  and  O2_13 
REMARK    6  A    between atoms: C10_14  and  N3_15 
ROOT
HETATM    1  N1  NW1   401       2.163  28.411   7.198  1.00 40.66    -0.036 NA
HETATM    2  C1  NW1   401       1.225  28.478   8.180  1.00 40.55     0.218 A 
HETATM    3  C9  NW1   401       0.513  29.755   8.491  1.00 38.36     0.183 A 
HETATM    4  C10 NW1   401       0.858  30.822   7.769  1.00 36.95     0.176 A 
HETATM    5  N4  NW1   401       1.872  30.621   6.724  1.00 38.62    -0.043 NA
HETATM    6  C11 NW1   401       2.488  29.550   6.466  1.00 38.93     0.724 A 
HETATM    7  N5  NW1   401       3.411  29.419   5.547  1.00 40.86    -0.231 N 
HETATM    8  H17 NW1   401       3.689  30.231   4.977  1.00  0.00     0.174 HD
HETATM    9  H18 NW1   401       3.859  28.504   5.394  1.00  0.00     0.174 HD
ENDROOT
BRANCH   2  10
HETATM   10  O1  NW1   401       0.965  27.309   8.898  1.00 44.71    -0.332 OA
BRANCH  10  11
HETATM   11  C2  NW1   401       1.919  26.234   8.681  1.00 43.81     0.182 C 
BRANCH  11  12
HETATM   12  C3  NW1   401       1.644  25.219   9.793  1.00 45.60     0.010 C 
HETATM   13  C4  NW1   401       0.138  25.012  10.052  1.00 47.16     0.007 C 
HETATM   14  C5  NW1   401      -0.045  24.056  11.268  1.00 47.92     0.000 C 
HETATM   15  C6  NW1   401       0.652  22.691  10.941  1.00 48.66     0.000 C 
HETATM   16  C7  NW1   401       2.177  22.970  10.833  1.00 48.42     0.000 C 
HETATM   17  C8  NW1   401       2.379  23.868   9.568  1.00 47.63     0.007 C 
ENDBRANCH  11  12
ENDBRANCH  10  11
ENDBRANCH   2  10
BRANCH   3  18
HETATM   18  N2  NW1   401      -0.438  29.684   9.584  1.00 40.06    -0.128 NA
BRANCH  18  19
HETATM   19  O2  NW1   401      -1.067  30.715   9.874  1.00 43.89    -0.266 OA
HETATM   20  H14 NW1   401      -0.753  31.452   9.226  1.00  0.00     0.247 HD
ENDBRANCH  18  19
ENDBRANCH   3  18
BRANCH   4  21
HETATM   21  N3  NW1   401       0.324  31.993   7.960  1.00 34.86    -0.381 N 
HETATM   22  H15 NW1   401       0.617  32.793   7.382  1.00  0.00     0.157 HD
HETATM   23  H16 NW1   401      -0.392  32.120   8.690  1.00  0.00     0.157 HD
ENDBRANCH   4  21
TORSDOF 6
